"""
VERSION: AramcoMech 1.3 C3
ORIGINAL_AUTHORS: W. K. Metcalfe, S. Burke, H. J. Curran
WEBSITE: http://c3.nuigalway.ie/
-----------------------------------------------------------------------------!
REDUCED to 70 SPECIES / 352 REACTIONS
AUTHOR: Robert F. Pachler
WEBSITE: http://vt.tuwien.ac.at/
-----------------------------------------------------------------------------!
VERSION: AramcoMech 1.3
AUTHORS: W. K. Metcalfe, S. Burke, H. J. Curran
WEBSITE: http://c3.nuigalway.ie/

"""

units(length='cm', time='s', quantity='mol', act_energy='cal/mol')

ideal_gas(name='gas',
          elements="C H N O Ar He",
          species="""H             H2            O             O2
                     OH            OH*           H2O           N2
                     HO2           H2O2          AR            CO
                     CO2           CH2O          HCO           HCOH
                     O2CHO         HOCH2O2H      CH3OH         CH3O
                     CH3O2H        CH3O2         CH4           CH3
                     CH            CH*           C2H6          C2H5
                     C2H4          C2H3          CH3CHO        C2H3OH
                     C2H2OH        CH3CO         CH2CHO        O2CH2CHO
                     HO2CH2CO      CH2CO         HCCO          C2H4O1-2
                     C3KET21       C2H3CHO       C2H3CO        CH3OCH3
                     HE            C3H8          IC3H7         NC3H7
                     C3H6          C3H5-A        C3H5O         C3H6OOH1-2
                     C3H6OOH1-3    C3H6OOH2-1    C3H6OOH1-2O2  C3H6OOH1-3O2
                     C3H6OOH2-1O2  NC3H7O2H      IC3H7O2H      NC3H7O2
                     IC3H7O2       IC3H7O        C3H6O1-2      C3H6O1-3
                     C3KET12       C3KET13       C3H6OH        HOC3H6O2
                     CH3CHCO       H2CC""",
          reactions='all',
          transport='Mix',
          initial_state=state(temperature=300.0, pressure=OneAtm))

#-------------------------------------------------------------------------------
# Species data
#-------------------------------------------------------------------------------

species(name='H',
        atoms='H:1',
        thermo=(NASA([200.00, 1000.00],
                     [ 2.50000000E+00,  0.00000000E+00,  0.00000000E+00,
                       0.00000000E+00,  0.00000000E+00,  2.54736600E+04,
                      -4.46682850E-01]),
                NASA([1000.00, 6000.00],
                     [ 2.50000000E+00,  0.00000000E+00,  0.00000000E+00,
                       0.00000000E+00,  0.00000000E+00,  2.54736600E+04,
                      -4.46682850E-01])),
        transport=gas_transport(geom='atom',
                                diam=2.05,
                                well_depth=145.0),
        note='L6/94')

species(name='H2',
        atoms='H:2',
        thermo=(NASA([200.00, 1000.00],
                     [ 2.34433112E+00,  7.98052075E-03, -1.94781510E-05,
                       2.01572094E-08, -7.37611761E-12, -9.17935173E+02,
                       6.83010238E-01]),
                NASA([1000.00, 6000.00],
                     [ 2.93286575E+00,  8.26608026E-04, -1.46402364E-07,
                       1.54100414E-11, -6.88804800E-16, -8.13065581E+02,
                      -1.02432865E+00])),
        transport=gas_transport(geom='linear',
                                diam=2.92,
                                well_depth=38.0,
                                polar=0.79,
                                rot_relax=280.0),
        note='TPIS78')

species(name='O',
        atoms='O:1',
        thermo=(NASA([200.00, 1000.00],
                     [ 3.16826710E+00, -3.27931884E-03,  6.64306396E-06,
                      -6.12806624E-09,  2.11265971E-12,  2.91222592E+04,
                       2.05193346E+00]),
                NASA([1000.00, 6000.00],
                     [ 2.54363697E+00, -2.73162486E-05, -4.19029520E-09,
                       4.95481845E-12, -4.79553694E-16,  2.92260120E+04,
                       4.92229457E+00])),
        transport=gas_transport(geom='atom',
                                diam=2.75,
                                well_depth=80.0),
        note='L1/90')

species(name='O2',
        atoms='O:2',
        thermo=(NASA([200.00, 1000.00],
                     [ 3.78245636E+00, -2.99673416E-03,  9.84730201E-06,
                      -9.68129509E-09,  3.24372837E-12, -1.06394356E+03,
                       3.65767573E+00]),
                NASA([1000.00, 6000.00],
                     [ 3.66096065E+00,  6.56365811E-04, -1.41149627E-07,
                       2.05797935E-11, -1.29913436E-15, -1.21597718E+03,
                       3.41536279E+00])),
        transport=gas_transport(geom='linear',
                                diam=3.458,
                                well_depth=107.4,
                                polar=1.6,
                                rot_relax=3.8),
        note='RUS89')

species(name='OH',
        atoms='H:1 O:1',
        thermo=(NASA([200.00, 1000.00],
                     [ 3.99198424E+00, -2.40106655E-03,  4.61664033E-06,
                      -3.87916306E-09,  1.36319502E-12,  3.36889836E+03,
                      -1.03998477E-01]),
                NASA([1000.00, 6000.00],
                     [ 2.83853033E+00,  1.10741289E-03, -2.94000209E-07,
                       4.20698729E-11, -2.42289890E-15,  3.69780808E+03,
                       5.84494652E+00])),
        transport=gas_transport(geom='linear',
                                diam=2.75,
                                well_depth=80.0),
        note='IU3/03')

species(name='OH*',
        atoms='H:1 O:1',
        thermo=(NASA([300.00, 1000.00],
                     [ 3.63726600E+00,  1.85091000E-04, -1.67616460E-06,
                       2.38720200E-09, -8.43144200E-13,  5.00213000E+04,
                       1.35886050E+00]),
                NASA([1000.00, 5000.00],
                     [ 2.88273000E+00,  1.01397430E-03, -2.27687700E-07,
                       2.17468300E-11, -5.12630500E-16,  5.02650000E+04,
                       5.59571200E+00])),
        transport=gas_transport(geom='linear',
                                diam=2.75,
                                well_depth=80.0),
        note='121286')

species(name='H2O',
        atoms='H:2 O:1',
        thermo=(NASA([200.00, 1000.00],
                     [ 4.19863520E+00, -2.03640170E-03,  6.52034160E-06,
                      -5.48792690E-09,  1.77196800E-12, -3.02937260E+04,
                      -8.49009010E-01]),
                NASA([1000.00, 6000.00],
                     [ 2.67703890E+00,  2.97318160E-03, -7.73768890E-07,
                       9.44335140E-11, -4.26899910E-15, -2.98858940E+04,
                       6.88255000E+00])),
        transport=gas_transport(geom='nonlinear',
                                diam=2.605,
                                well_depth=572.4,
                                dipole=1.844,
                                rot_relax=4.0),
        note='L5/89')

species(name='N2',
        atoms='N:2',
        thermo=(NASA([200.00, 1000.00],
                     [ 3.53100528E+00, -1.23660988E-04, -5.02999433E-07,
                       2.43530612E-09, -1.40881235E-12, -1.04697628E+03,
                       2.96747038E+00]),
                NASA([1000.00, 6000.00],
                     [ 2.95257637E+00,  1.39690040E-03, -4.92631603E-07,
                       7.86010195E-11, -4.60755204E-15, -9.23948688E+02,
                       5.87188762E+00])),
        transport=gas_transport(geom='linear',
                                diam=3.621,
                                well_depth=97.53,
                                polar=1.76,
                                rot_relax=4.0),
        note='G8/02')

species(name='HO2',
        atoms='H:1 O:2',
        thermo=(NASA([200.00, 1000.00],
                     [ 4.30179807E+00, -4.74912097E-03,  2.11582905E-05,
                      -2.42763914E-08,  9.29225225E-12,  2.64018485E+02,
                       3.71666220E+00]),
                NASA([1000.00, 5000.00],
                     [ 4.17228741E+00,  1.88117627E-03, -3.46277286E-07,
                       1.94657549E-11,  1.76256905E-16,  3.10206839E+01,
                       2.95767672E+00])),
        transport=gas_transport(geom='nonlinear',
                                diam=3.458,
                                well_depth=107.4,
                                rot_relax=1.0),
        note='T1/09')

species(name='H2O2',
        atoms='H:2 O:2',
        thermo=(NASA([200.00, 1000.00],
                     [ 4.31515149E+00, -8.47390622E-04,  1.76404323E-05,
                      -2.26762944E-08,  9.08950158E-12, -1.77067437E+04,
                       3.27373319E+00]),
                NASA([1000.00, 6000.00],
                     [ 4.57977305E+00,  4.05326003E-03, -1.29844730E-06,
                       1.98211400E-10, -1.13968792E-14, -1.80071775E+04,
                       6.64970694E-01])),
        transport=gas_transport(geom='nonlinear',
                                diam=3.458,
                                well_depth=107.4,
                                rot_relax=3.8),
        note='T8/03')

species(name='AR',
        atoms='Ar:1',
        thermo=(NASA([200.00, 1000.00],
                     [ 2.50000000E+00,  0.00000000E+00,  0.00000000E+00,
                       0.00000000E+00,  0.00000000E+00, -7.45375000E+02,
                       4.37967491E+00]),
                NASA([1000.00, 6000.00],
                     [ 2.50000000E+00,  0.00000000E+00,  0.00000000E+00,
                       0.00000000E+00,  0.00000000E+00, -7.45375000E+02,
                       4.37967491E+00])),
        transport=gas_transport(geom='atom',
                                diam=3.33,
                                well_depth=136.5),
        note='G5/97')

species(name='CO',
        atoms='C:1 O:1',
        thermo=(NASA([200.00, 1000.00],
                     [ 3.57953350E+00, -6.10353690E-04,  1.01681430E-06,
                       9.07005860E-10, -9.04424490E-13, -1.43440860E+04,
                       3.50840930E+00]),
                NASA([1000.00, 6000.00],
                     [ 3.04848590E+00,  1.35172810E-03, -4.85794050E-07,
                       7.88536440E-11, -4.69807460E-15, -1.42661170E+04,
                       6.01709770E+00])),
        transport=gas_transport(geom='linear',
                                diam=3.65,
                                well_depth=98.1,
                                polar=1.95,
                                rot_relax=1.8),
        note='RUS79')

species(name='CO2',
        atoms='C:1 O:2',
        thermo=(NASA([200.00, 1000.00],
                     [ 2.35681300E+00,  8.98412990E-03, -7.12206320E-06,
                       2.45730080E-09, -1.42885480E-13, -4.83719710E+04,
                       9.90090350E+00]),
                NASA([1000.00, 6000.00],
                     [ 4.63651110E+00,  2.74145690E-03, -9.95897590E-07,
                       1.60386660E-10, -9.16198570E-15, -4.90249040E+04,
                      -1.93489550E+00])),
        transport=gas_transport(geom='linear',
                                diam=3.763,
                                well_depth=244.0,
                                polar=2.65,
                                rot_relax=2.1),
        note='L7/88')

species(name='CH2O',
        atoms='C:1 H:2 O:1',
        thermo=(NASA([200.00, 1000.00],
                     [ 4.79372312E+00, -9.90833322E-03,  3.73219990E-05,
                      -3.79285237E-08,  1.31772641E-11, -1.43791953E+04,
                       6.02798058E-01]),
                NASA([1000.00, 6000.00],
                     [ 3.16952665E+00,  6.19320560E-03, -2.25056366E-06,
                       3.65975660E-10, -2.20149458E-14, -1.45486831E+04,
                       6.04207898E+00])),
        transport=gas_transport(geom='nonlinear',
                                diam=3.59,
                                well_depth=498.0,
                                rot_relax=2.0),
        note='T5/11')

species(name='HCO',
        atoms='C:1 H:1 O:1',
        thermo=(NASA([200.00, 1000.00],
                     [ 4.23754610E+00, -3.32075257E-03,  1.40030264E-05,
                      -1.34239995E-08,  4.37416208E-12,  3.87241185E+03,
                       3.30834869E+00]),
                NASA([1000.00, 6000.00],
                     [ 3.92001542E+00,  2.52279324E-03, -6.71004164E-07,
                       1.05615948E-10, -7.43798261E-15,  3.65342928E+03,
                       3.58077056E+00])),
        transport=gas_transport(geom='nonlinear',
                                diam=3.59,
                                well_depth=498.0),
        note='T5/03')

species(name='HCOH',
        atoms='C:1 H:2 O:1',
        thermo=(NASA([300.00, 1398.00],
                     [-2.82157421E+00,  3.57331702E-02, -3.80861580E-05,
                       1.86205951E-08, -3.45957838E-12,  1.12956672E+04,
                       3.48487757E+01]),
                NASA([1398.00, 5000.00],
                     [ 9.18749272E+00,  1.52011152E-03, -6.27603516E-07,
                       1.09727989E-10, -6.89655128E-15,  7.81364593E+03,
                      -2.73434214E+01])),
        transport=gas_transport(geom='nonlinear',
                                diam=3.59,
                                well_depth=498.0,
                                rot_relax=1.0),
        note='MAR94')

species(name='O2CHO',
        atoms='C:1 H:1 O:3',
        thermo=(NASA([300.00, 1368.00],
                     [ 3.96059309E+00,  1.06002279E-02, -5.25713351E-06,
                       1.01716726E-09, -2.87487602E-14, -1.73599383E+04,
                       1.17807483E+01]),
                NASA([1368.00, 5000.00],
                     [ 7.24075139E+00,  4.63312951E-03, -1.63693995E-06,
                       2.59706693E-10, -1.52964699E-14, -1.87027618E+04,
                      -6.49547212E+00])),
        transport=gas_transport(geom='nonlinear',
                                diam=3.97,
                                well_depth=436.0,
                                rot_relax=2.0),
        note='6/26/95THERM')

species(name='HOCH2O2H',
        atoms='C:1 H:4 O:3',
        thermo=(NASA([300.00, 1422.00],
                     [ 1.85716693E+00,  3.23153132E-02, -2.69928902E-05,
                       1.11694484E-08, -1.81284103E-12, -4.00314471E+04,
                       1.90917729E+01]),
                NASA([1422.00, 5000.00],
                     [ 1.16303827E+01,  7.15133688E-03, -2.39035030E-06,
                       3.65772791E-10, -2.10199524E-14, -4.31079242E+04,
                      -3.24276725E+01])),
        transport=gas_transport(geom='nonlinear',
                                diam=3.626,
                                well_depth=481.8,
                                dipole=1.7,
                                rot_relax=1.0),
        note='4/9/98THERM')

species(name='CH3OH',
        atoms='C:1 H:4 O:1',
        thermo=(NASA([200.00, 1000.00],
                     [ 5.65851051E+00, -1.62983419E-02,  6.91938156E-05,
                      -7.58372926E-08,  2.80427550E-11, -2.56119736E+04,
                      -8.97330508E-01]),
                NASA([1000.00, 6000.00],
                     [ 3.52726795E+00,  1.03178783E-02, -3.62892944E-06,
                       5.77448016E-10, -3.42182632E-14, -2.60028834E+04,
                       5.16758693E+00])),
        transport=gas_transport(geom='nonlinear',
                                diam=3.626,
                                well_depth=481.8,
                                rot_relax=1.0),
        note='T06/02')

species(name='CH3O',
        atoms='C:1 H:3 O:1',
        thermo=(NASA([200.00, 1000.00],
                     [ 3.71180502E+00, -2.80463306E-03,  3.76550971E-05,
                      -4.73072089E-08,  1.86588420E-11,  1.29569760E+03,
                       6.57240864E+00]),
                NASA([1000.00, 6000.00],
                     [ 4.75779238E+00,  7.44142474E-03, -2.69705176E-06,
                       4.38090504E-10, -2.63537098E-14,  3.78111940E+02,
                      -1.96680028E+00])),
        transport=gas_transport(geom='nonlinear',
                                diam=3.69,
                                well_depth=417.0,
                                dipole=1.7,
                                rot_relax=2.0),
        note='IU1/03')

species(name='CH3O2H',
        atoms='C:1 H:4 O:2',
        thermo=(NASA([200.00, 1000.00],
                     [ 2.90540897E+00,  1.74994735E-02,  5.28243630E-06,
                      -2.52827275E-08,  1.34368212E-11, -1.68894632E+04,
                       1.13741987E+01]),
                NASA([1000.00, 6000.00],
                     [ 7.76538058E+00,  8.61499712E-03, -2.98006935E-06,
                       4.68638071E-10, -2.75339255E-14, -1.82979984E+04,
                      -1.43992663E+01])),
        transport=gas_transport(geom='nonlinear',
                                diam=3.626,
                                well_depth=481.8,
                                rot_relax=1.0),
        note='A7/05')

species(name='CH3O2',
        atoms='C:1 H:3 O:2',
        thermo=(NASA([300.00, 1374.00],
                     [ 1.97339205E+00,  1.53542340E-02, -6.37314891E-06,
                       3.19930565E-10,  2.82193915E-13,  2.54278835E+02,
                       1.69194215E+01]),
                NASA([1374.00, 5000.00],
                     [ 6.47970487E+00,  7.44401080E-03, -2.52348555E-06,
                       3.89577296E-10, -2.25182399E-14, -1.56285441E+03,
                      -8.19477074E+00])),
        transport=gas_transport(geom='nonlinear',
                                diam=3.626,
                                well_depth=481.8,
                                rot_relax=1.0))

species(name='CH4',
        atoms='C:1 H:4',
        thermo=(NASA([200.00, 1000.00],
                     [ 5.14911468E+00, -1.36622009E-02,  4.91453921E-05,
                      -4.84246767E-08,  1.66603441E-11, -1.02465983E+04,
                      -4.63848842E+00]),
                NASA([1000.00, 6000.00],
                     [ 1.65326226E+00,  1.00263099E-02, -3.31661238E-06,
                       5.36483138E-10, -3.14696758E-14, -1.00095936E+04,
                       9.90506283E+00])),
        transport=gas_transport(geom='nonlinear',
                                diam=3.746,
                                well_depth=141.4,
                                polar=2.6,
                                rot_relax=13.0),
        note='G8/99')

species(name='CH3',
        atoms='C:1 H:3',
        thermo=(NASA([200.00, 1000.00],
                     [ 3.65717970E+00,  2.12659790E-03,  5.45838830E-06,
                      -6.61810030E-09,  2.46570740E-12,  1.64227160E+04,
                       1.67353540E+00]),
                NASA([1000.00, 6000.00],
                     [ 2.97812060E+00,  5.79785200E-03, -1.97558000E-06,
                       3.07297900E-10, -1.79174160E-14,  1.65095130E+04,
                       4.72247990E+00])),
        transport=gas_transport(geom='linear',
                                diam=3.8,
                                well_depth=144.0),
        note='IU0702')

species(name='CH',
        atoms='C:1 H:1',
        thermo=(NASA([200.00, 1000.00],
                     [ 3.48975830E+00,  3.24321600E-04, -1.68997510E-06,
                       3.16284200E-09, -1.40618030E-12,  7.06126460E+04,
                       2.08428410E+00]),
                NASA([1000.00, 6000.00],
                     [ 2.52093690E+00,  1.76536390E-03, -4.61476600E-07,
                       5.92896750E-11, -3.34745010E-15,  7.09467690E+04,
                       7.40518290E+00])),
        transport=gas_transport(geom='linear',
                                diam=2.75,
                                well_depth=80.0),
        note='IU3/03')

species(name='CH*',
        atoms='C:1 H:1',
        thermo=(NASA([300.00, 1000.00],
                     [ 3.20020200E+00,  2.07287500E-03, -5.13443100E-06,
                       5.73389000E-09, -1.95553300E-12,  1.03937140E+05,
                       3.33158700E+00]),
                NASA([1000.00, 5000.00],
                     [ 2.19622300E+00,  2.34038100E-03, -7.05820100E-07,
                       9.00758200E-11, -3.85504000E-15,  1.04195590E+05,
                       9.17837300E+00])),
        transport=gas_transport(geom='linear',
                                diam=2.75,
                                well_depth=80.0),
        note='073003')

species(name='C2H6',
        atoms='C:2 H:6',
        thermo=(NASA([200.00, 1000.00],
                     [ 4.29142572E+00, -5.50154901E-03,  5.99438458E-05,
                      -7.08466469E-08,  2.68685836E-11, -1.15222056E+04,
                       2.66678994E+00]),
                NASA([1000.00, 6000.00],
                     [ 4.04666411E+00,  1.53538802E-02, -5.47039485E-06,
                       8.77826544E-10, -5.23167531E-14, -1.24473499E+04,
                      -9.68698313E-01])),
        transport=gas_transport(geom='nonlinear',
                                diam=4.35,
                                well_depth=247.5,
                                rot_relax=1.5),
        note='G8/88')

species(name='C2H5',
        atoms='C:2 H:5',
        thermo=(NASA([300.00, 1387.00],
                     [ 1.32730217E+00,  1.76656753E-02, -6.14926558E-06,
                      -3.01143466E-10,  4.38617775E-13,  1.34284028E+04,
                       1.71789216E+01]),
                NASA([1387.00, 5000.00],
                     [ 5.88784390E+00,  1.03076793E-02, -3.46844396E-06,
                       5.32499257E-10, -3.06512651E-14,  1.15065499E+04,
                      -8.49651771E+00])),
        transport=gas_transport(geom='nonlinear',
                                diam=4.35,
                                well_depth=247.5,
                                rot_relax=1.5),
        note='8/4/4THERM')

species(name='C2H4',
        atoms='C:2 H:4',
        thermo=(NASA([200.00, 1000.00],
                     [ 3.95920063E+00, -7.57051373E-03,  5.70989993E-05,
                      -6.91588352E-08,  2.69884190E-11,  5.08977598E+03,
                       4.09730213E+00]),
                NASA([1000.00, 6000.00],
                     [ 3.99182724E+00,  1.04833908E-02, -3.71721342E-06,
                       5.94628366E-10, -3.53630386E-14,  4.26865851E+03,
                      -2.69081762E-01])),
        transport=gas_transport(geom='nonlinear',
                                diam=3.496,
                                well_depth=238.4,
                                rot_relax=1.5),
        note='G1/00')

species(name='C2H3',
        atoms='C:2 H:3',
        thermo=(NASA([200.00, 1000.00],
                     [ 3.36377642E+00,  2.65765722E-04,  2.79620704E-05,
                      -3.72986942E-08,  1.51590176E-11,  3.44749589E+04,
                       7.91510092E+00]),
                NASA([1000.00, 6000.00],
                     [ 4.15026763E+00,  7.54021341E-03, -2.62997847E-06,
                       4.15974048E-10, -2.45407509E-14,  3.38566380E+04,
                       1.72812235E+00])),
        transport=gas_transport(geom='nonlinear',
                                diam=3.721,
                                well_depth=265.3,
                                rot_relax=1.0),
        note='ATCT/A')

species(name='CH3CHO',
        atoms='C:2 H:4 O:1',
        thermo=(NASA([200.00, 1000.00],
                     [ 4.72945950E+00, -3.19328580E-03,  4.75349210E-05,
                      -5.74586110E-08,  2.19311120E-11, -2.15728780E+04,
                       4.10301590E+00]),
                NASA([1000.00, 6000.00],
                     [ 5.40411080E+00,  1.17230590E-02, -4.22631370E-06,
                       6.83724510E-10, -4.09848630E-14, -2.25931220E+04,
                      -3.48079170E+00])),
        transport=gas_transport(geom='nonlinear',
                                diam=3.97,
                                well_depth=436.0,
                                rot_relax=2.0),
        note='L8/88')

species(name='C2H3OH',
        atoms='C:2 H:4 O:1',
        thermo=(NASA([300.00, 1410.00],
                     [-1.27972260E-01,  3.38506073E-02, -3.30644935E-05,
                       1.64858739E-08, -3.19935455E-12, -1.59914544E+04,
                       2.30438601E+01]),
                NASA([1410.00, 5000.00],
                     [ 8.32598158E+00,  8.03387281E-03, -2.63928405E-06,
                       3.98410726E-10, -2.26551155E-14, -1.83221436E+04,
                      -2.02080305E+01])),
        transport=gas_transport(geom='nonlinear',
                                diam=4.41,
                                well_depth=470.6,
                                rot_relax=1.5),
        note='2/3/9THERM')

species(name='C2H2OH',
        atoms='C:2 H:3 O:1',
        thermo=(NASA([300.00, 1401.00],
                     [ 6.41642616E-01,  2.61903633E-02, -2.30385370E-05,
                       1.02804704E-08, -1.81971416E-12,  1.48276951E+04,
                       2.06750999E+01]),
                NASA([1401.00, 5000.00],
                     [ 8.20268447E+00,  5.92989165E-03, -1.99194448E-06,
                       3.05794341E-10, -1.76114732E-14,  1.24881328E+04,
                      -1.89670436E+01])),
        transport=gas_transport(geom='nonlinear',
                                diam=4.162,
                                well_depth=224.7,
                                rot_relax=1.0))

species(name='CH3CO',
        atoms='C:2 H:3 O:1',
        thermo=(NASA([200.00, 1000.00],
                     [ 4.03587050E+00,  8.77294870E-04,  3.07100100E-05,
                      -3.92475650E-08,  1.52968690E-11, -2.68207380E+03,
                       7.86176820E+00]),
                NASA([1000.00, 6000.00],
                     [ 5.31371650E+00,  9.17377930E-03, -3.32203860E-06,
                       5.39474560E-10, -3.24523680E-14, -3.64504140E+03,
                      -1.67575580E+00])),
        transport=gas_transport(geom='nonlinear',
                                diam=3.97,
                                well_depth=436.0,
                                rot_relax=2.0),
        note='IU2/03')

species(name='CH2CHO',
        atoms='C:2 H:3 O:1',
        thermo=(NASA([200.00, 1000.00],
                     [ 2.79502600E+00,  1.01099472E-02,  1.61750645E-05,
                      -3.10303145E-08,  1.39436139E-11,  1.62944975E+02,
                       1.23646657E+01]),
                NASA([1000.00, 6000.00],
                     [ 6.53928338E+00,  7.80238629E-03, -2.76413612E-06,
                       4.42098906E-10, -2.62954290E-14, -1.18858659E+03,
                      -8.72091393E+00])),
        transport=gas_transport(geom='nonlinear',
                                diam=3.97,
                                well_depth=436.0,
                                rot_relax=2.0),
        note='T03/10')

species(name='O2CH2CHO',
        atoms='C:2 H:3 O:3',
        thermo=(NASA([300.00, 1393.00],
                     [-1.29465843E+00,  4.44936393E-02, -4.26577074E-05,
                       2.07391950E-08, -3.96828771E-12, -1.18275628E+04,
                       3.60778797E+01]),
                NASA([1393.00, 5000.00],
                     [ 1.11807543E+01,  9.14479256E-03, -3.15089833E-06,
                       4.91944238E-10, -2.86639180E-14, -1.55790331E+04,
                      -2.87892740E+01])),
        transport=gas_transport(geom='nonlinear',
                                diam=5.428,
                                well_depth=275.049,
                                rot_relax=1.0),
        note='BOZ_03')

species(name='HO2CH2CO',
        atoms='C:2 H:3 O:3',
        thermo=(NASA([300.00, 1386.00],
                     [ 2.22681686E+00,  3.56781380E-02, -3.26401909E-05,
                       1.47651988E-08, -2.64794380E-12, -1.18735095E+04,
                       1.91581197E+01]),
                NASA([1386.00, 5000.00],
                     [ 1.04146322E+01,  1.12680116E-02, -5.17494839E-06,
                       1.00333285E-09, -6.68165911E-14, -1.40955672E+04,
                      -2.27894400E+01])),
        transport=gas_transport(geom='nonlinear',
                                diam=5.505,
                                well_depth=279.007,
                                dipole=1.3,
                                rot_relax=1.0),
        note='BOZ_03')

species(name='CH2CO',
        atoms='C:2 H:2 O:1',
        thermo=(NASA([300.00, 1000.00],
                     [ 1.81422511E+00,  1.99008590E-02, -2.21416008E-05,
                       1.45028521E-08, -3.98877068E-12, -7.05394926E+03,
                       1.36079359E+01]),
                NASA([1000.00, 5000.00],
                     [ 5.35869367E+00,  6.95641586E-03, -2.64802637E-06,
                       4.65067592E-10, -3.08641820E-14, -7.90294013E+03,
                      -3.98525731E+00])),
        transport=gas_transport(geom='nonlinear',
                                diam=3.97,
                                well_depth=436.0,
                                rot_relax=2.0))

species(name='HCCO',
        atoms='C:2 H:1 O:1',
        thermo=(NASA([200.00, 1000.00],
                     [ 1.87607969E+00,  2.21205418E-02, -3.58869325E-05,
                       3.05402541E-08, -1.01281069E-11,  2.01633840E+04,
                       1.36968290E+01]),
                NASA([1000.00, 6000.00],
                     [ 5.91479333E+00,  3.71408730E-03, -1.30137010E-06,
                       2.06473345E-10, -1.21476759E-14,  1.93596301E+04,
                      -5.50567269E+00])),
        transport=gas_transport(geom='nonlinear',
                                diam=2.5,