"""

 ===== gasoline PRF reduced mechanism 2.0 (#190128a) =====
       with ethanol

 Fuel: nC7H16(n-heptane)
       iC8H18(isooctane, 2,2,4-trimethylpentane)
       C2H5OH(ethanol)

-------------------------------------------------------------------------------

 ===== gasoline PRF reduced mechanism 2.0 (#190128a) =====
       with ethanol

 Fuel: nC7H16(n-heptane)
       iC8H18(isooctane, 2,2,4-trimethylpentane)
       C2H5OH(ethanol)

"""

units(length='cm', time='s', quantity='mol', act_energy='cal/mol')

ideal_gas(name='gas',
          elements="H O C N Ar",
          species="""nC7H16       nC7H15       nC7H15OO     nC7H14OOH
                     nHOOC7H14OO  nC7KET       nC5H9O       nC5H11
                     nC5H10       nC5H9        nC7H15O      nC7H15OOH
                     iC8H18       iC8H17       iC8H17OO     iC8H16OOH
                     iHOOC8H16OO  iC8KET       iC7H13O      iC7H14
                     iC7H13       iC4H9        iC4H8        iC4H7
                     iC8H17O      iC8H17OOH    N2           O
                     O2           H            OH           HO2
                     H2           H2O          H2O2         CO
                     CO2          CH           HCO          CH2
                     CH2O         CH3          CH3O         CH3OO
                     CH4          CH3OOH       HCCO         C2H2
                     CH2CO        C2H3         CH2CHO       CH3CO
                     CH3CO2       CH3C(O)OO    C2H4         CH3CHO
                     CH3C(O)OOH   C2H5         pC2H4OH      C2H5O
                     C2H5OO       C2H6         C2H5OOH      aC3H5
                     C3H6         iC3H7        AR""",
          reactions='all',
          transport='Mix',
          initial_state=state(temperature=300.0, pressure=OneAtm))

#-------------------------------------------------------------------------------
# Species data
#-------------------------------------------------------------------------------

species(name='nC7H16',
        atoms='C:7 H:16',
        thermo=(NASA([300.00, 1391.00],
                     [-1.26871064E+00,  8.54348955E-02, -5.25290944E-05,
                       1.62884286E-08, -2.02214778E-12, -2.56586562E+04,
                       3.53739478E+01]),
                NASA([1391.00, 5000.00],
                     [ 2.22177923E+01,  3.47632604E-02, -1.18388528E-05,
                       1.83265875E-09, -1.06109932E-13, -3.42772591E+04,
                      -9.23217457E+01])),
        transport=gas_transport(geom='nonlinear',
                                diam=6.094,
                                well_depth=415.4,
                                rot_relax=1.0),
        note='thgen')

species(name='nC7H15',
        atoms='C:7 H:15',
        thermo=(NASA([300.00, 1382.00],
                     [-3.88848544E-02,  7.56801544E-02, -4.07609055E-05,
                       9.33601461E-09, -4.94482163E-13, -2.35589863E+03,
                       3.37383486E+01]),
                NASA([1382.00, 5000.00],
                     [ 2.16358383E+01,  3.23340841E-02, -1.09280566E-05,
                       1.68368616E-09, -9.71844623E-14, -1.05866176E+04,
                      -8.52122680E+01])),
        transport=gas_transport(geom='nonlinear',
                                diam=6.094,
                                well_depth=415.4,
                                rot_relax=1.0),
        note='thgen')

species(name='nC7H15OO',
        atoms='C:7 H:15 O:2',
        thermo=(NASA([300.00, 1390.00],
                     [ 3.59006547E-01,  9.42245153E-02, -6.66804487E-05,
                       2.54724302E-08, -4.13086673E-12, -2.03728288E+04,
                       3.28613586E+01]),
                NASA([1390.00, 5000.00],
                     [ 2.60523050E+01,  3.43839001E-02, -1.18715005E-05,
                       1.85452176E-09, -1.08053193E-13, -2.94761134E+04,
                      -1.05463689E+02])),
        transport=gas_transport(geom='nonlinear',
                                diam=6.238,
                                well_depth=506.2,
                                rot_relax=1.0),
        note='thgen')

species(name='nC7H14OOH',
        atoms='C:7 H:15 O:2',
        thermo=(NASA([300.00, 1389.00],
                     [ 8.68010527E-01,  9.24071780E-02, -6.23385915E-05,
                       2.16105189E-08, -3.07642818E-12, -1.53160279E+04,
                       3.24663802E+01]),
                NASA([1389.00, 5000.00],
                     [ 2.74573337E+01,  3.26265036E-02, -1.12386517E-05,
                       1.75329980E-09, -1.02071273E-13, -2.48239746E+04,
                      -1.11231599E+02])),
        transport=gas_transport(geom='nonlinear',
                                diam=6.238,
                                well_depth=506.2,
                                rot_relax=1.0),
        note='thgen')

species(name='nHOOC7H14OO',
        atoms='C:7 H:15 O:4',
        thermo=(NASA([300.00, 1390.00],
                     [ 1.41185977E+00,  1.10703712E-01, -8.70872996E-05,
                       3.63452156E-08, -6.27852573E-12, -3.33720367E+04,
                       3.07923596E+01]),
                NASA([1390.00, 5000.00],
                     [ 3.28360162E+01,  3.32763432E-02, -1.15831469E-05,
                       1.81955309E-09, -1.06432285E-13, -4.40287923E+04,
                      -1.36795390E+02])),
        transport=gas_transport(geom='nonlinear',
                                diam=6.376,
                                well_depth=596.0,
                                rot_relax=1.0),
        note='thgen')

species(name='nC7KET',
        atoms='C:7 H:14 O:3',
        thermo=(NASA([300.00, 1386.00],
                     [ 2.32186256E+00,  9.45240193E-02, -6.99211946E-05,
                       2.79874447E-08, -4.74465002E-12, -5.27085951E+04,
                       2.45959611E+01]),
                NASA([1386.00, 5000.00],
                     [ 2.86566981E+01,  3.21565793E-02, -1.11959188E-05,
                       1.75889497E-09, -1.02888014E-13, -6.19744506E+04,
                      -1.16883589E+02])),
        transport=gas_transport(geom='nonlinear',
                                diam=6.265,
                                well_depth=556.3,
                                rot_relax=1.0),
        note='thgen')

species(name='nC5H9O',
        atoms='C:5 H:9 O:1',
        thermo=(NASA([300.00, 1379.00],
                     [ 2.36413323E+00,  4.95786327E-02, -2.90721987E-05,
                       8.29294303E-09, -9.03229011E-13, -1.14543903E+04,
                       1.96153510E+01]),
                NASA([1379.00, 5000.00],
                     [ 1.64012943E+01,  2.04003752E-02, -6.93873682E-06,
                       1.07367226E-09, -6.21614279E-14, -1.67278682E+04,
                      -5.71188765E+01])),
        transport=gas_transport(geom='nonlinear',
                                diam=5.605,
                                well_depth=425.1,
                                rot_relax=1.0),
        note='thgen')

species(name='nC5H11',
        atoms='C:5 H:11',
        thermo=(NASA([300.00, 1390.00],
                     [ 5.79609854E-02,  5.60823625E-02, -3.31785211E-05,
                       9.79021087E-09, -1.14223950E-12,  4.71440753E+03,
                       2.86918308E+01]),
                NASA([1390.00, 5000.00],
                     [ 1.52896647E+01,  2.39755267E-02, -8.18341222E-06,
                       1.26861432E-09, -7.35224954E-14, -9.72919304E+02,
                      -5.44277267E+01])),
        transport=gas_transport(geom='nonlinear',
                                diam=5.507,
                                well_depth=378.3,
                                rot_relax=1.0),
        note='thgen')

species(name='nC5H10',
        atoms='C:5 H:10',
        thermo=(NASA([300.00, 1392.00],
                     [-1.07237458E+00,  5.74872482E-02, -3.75589723E-05,
                       1.28055098E-08, -1.81083209E-12, -4.46482377E+03,
                       3.23144603E+01]),
                NASA([1392.00, 5000.00],
                     [ 1.45837757E+01,  2.24057409E-02, -7.63231344E-06,
                       1.18163580E-09, -6.84206955E-14, -1.00871422E+04,
                      -5.23577225E+01])),
        transport=gas_transport(geom='nonlinear',
                                diam=5.395,
                                well_depth=378.3,
                                rot_relax=1.0),
        note='thgen')

species(name='nC5H9',
        atoms='C:5 H:9',
        thermo=(NASA([300.00, 1388.00],
                     [-1.04797696E+00,  5.41768083E-02, -3.45284353E-05,
                       1.11684416E-08, -1.47643393E-12,  1.25116524E+04,
                       3.11242264E+01]),
                NASA([1388.00, 5000.00],
                     [ 1.45041351E+01,  2.05083694E-02, -7.10654706E-06,
                       1.11295524E-09, -6.49627735E-14,  6.79087910E+03,
                      -5.34346369E+01])),
        transport=gas_transport(geom='nonlinear',
                                diam=5.395,
                                well_depth=378.3,
                                rot_relax=1.0),
        note='thgen')

species(name='nC7H15O',
        atoms='C:7 H:15 O:1',
        thermo=(NASA([300.00, 1395.00],
                     [-1.08852878E+00,  9.23114953E-02, -6.44357297E-05,
                       2.36757686E-08, -3.61001227E-12, -1.99930305E+04,
                       3.70751744E+01]),
                NASA([1395.00, 5000.00],
                     [ 2.43050592E+01,  3.31299633E-02, -1.13048045E-05,
                       1.75223806E-09, -1.01542653E-13, -2.88617678E+04,
                      -9.94127348E+01])),
        transport=gas_transport(geom='nonlinear',
                                diam=6.156,
                                well_depth=488.4,
                                rot_relax=1.0),
        note='thgen')

species(name='nC7H15OOH',
        atoms='C:7 H:16 O:2',
        thermo=(NASA([300.00, 1390.00],
                     [-5.93636262E-01,  1.02847108E-01, -7.42877994E-05,
                       2.83328117E-08, -4.51137547E-12, -3.85781122E+04,
                       3.59212486E+01]),
                NASA([1390.00, 5000.00],
                     [ 2.85696040E+01,  3.45362690E-02, -1.19635215E-05,
                       1.87319578E-09, -1.09321273E-13, -4.87912635E+04,
                      -1.20812558E+02])),
        transport=gas_transport(geom='nonlinear',
                                diam=6.238,
                                well_depth=506.2,
                                rot_relax=1.0),
        note='thgen')

species(name='iC8H18',
        atoms='C:8 H:18',
        thermo=(NASA([300.00, 1397.00],
                     [-4.20184373E+00,  1.11525135E-01, -7.94018605E-05,
                       2.94327964E-08, -4.47928170E-12, -3.19113977E+04,
                       4.48981238E+01]),
                NASA([1397.00, 5000.00],
                     [ 2.70920030E+01,  3.79052142E-02, -1.29375691E-05,
                       2.00580387E-09, -1.16261109E-13, -4.27201269E+04,
                      -1.22972430E+02])),
        transport=gas_transport(geom='nonlinear',
                                diam=6.274,
                                well_depth=442.4,
                                rot_relax=1.0),
        note='thgen')

species(name='iC8H17',
        atoms='C:8 H:17',
        thermo=(NASA([300.00, 1393.00],
                     [-3.08982602E+00,  1.02313728E-01, -6.84786443E-05,
                       2.30138816E-08, -3.06907219E-12, -8.59119871E+03,
                       4.31119876E+01]),
                NASA([1393.00, 5000.00],
                     [ 2.64552622E+01,  3.55440069E-02, -1.20528460E-05,
                       1.86101603E-09, -1.07579175E-13, -1.90011197E+04,
                      -1.16235434E+02])),
        transport=gas_transport(geom='nonlinear',
                                diam=6.274,
                                well_depth=442.4,
                                rot_relax=1.0),
        note='thgen')

species(name='iC8H17OO',
        atoms='C:8 H:17 O:2',
        thermo=(NASA([300.00, 1394.00],
                     [-3.06443818E+00,  1.22613369E-01, -9.71774181E-05,
                       4.08857690E-08, -7.08508839E-12, -2.65537797E+04,
                       4.39441843E+01]),
                NASA([1394.00, 5000.00],
                     [ 3.09355421E+01,  3.74105002E-02, -1.29073110E-05,
                       2.01549577E-09, -1.17402236E-13, -3.78977875E+04,
                      -1.36798535E+02])),
        transport=gas_transport(geom='nonlinear',
                                diam=6.41,
                                well_depth=530.7,
                                rot_relax=1.0),
        note='thgen')

species(name='iC8H16OOH',
        atoms='C:8 H:17 O:2',
        thermo=(NASA([300.00, 1395.00],
                     [-3.22291546E+00,  1.26638844E-01, -1.02432626E-04,
                       4.32601240E-08, -7.45097857E-12, -2.01505706E+04,
                       4.54684584E+01]),
                NASA([1395.00, 5000.00],
                     [ 3.29642834E+01,  3.54528218E-02, -1.22763166E-05,
                       1.92179615E-09, -1.12146066E-13, -3.21060047E+04,
                      -1.46610031E+02])),
        transport=gas_transport(geom='nonlinear',
                                diam=6.41,
                                well_depth=530.7,
                                rot_relax=1.0),
        note='thgen')

species(name='iHOOC8H16OO',
        atoms='C:8 H:17 O:4',
        thermo=(NASA([300.00, 1393.00],
                     [-1.32886825E+00,  1.32867168E-01, -1.07401821E-04,
                       4.53903634E-08, -7.84223845E-12, -3.73590684E+04,
                       4.04443512E+01]),
                NASA([1393.00, 5000.00],
                     [ 3.68921902E+01,  3.70313467E-02, -1.28759800E-05,
                       2.02124832E-09, -1.18176812E-13, -5.00657935E+04,
                      -1.62652799E+02])),
        transport=gas_transport(geom='nonlinear',
                                diam=6.565,
                                well_depth=616.7,
                                rot_relax=1.0),
        note='thgen')

species(name='iC8KET',
        atoms='C:8 H:16 O:3',
        thermo=(NASA([300.00, 1393.00],
                     [-3.69054288E+00,  1.27292525E-01, -1.00891530E-04,
                       4.14152491E-08, -6.93785042E-12, -5.52794020E+04,
                       5.03601636E+01]),
                NASA([1393.00, 5000.00],
                     [ 3.37013249E+01,  3.51404946E-02, -1.22403555E-05,
                       1.92384697E-09, -1.12581529E-13, -6.78193788E+04,
                      -1.48813885E+02])),
        transport=gas_transport(geom='nonlinear',
                                diam=6.461,
                                well_depth=578.1,
                                rot_relax=1.0),
        note='thgen')

species(name='iC7H13O',
        atoms='C:7 H:13 O:1',
        thermo=(NASA([300.00, 1394.00],
                     [-1.80946874E+00,  9.01521048E-02, -6.57659227E-05,
                       2.48425015E-08, -3.84914862E-12, -2.15441753E+04,
                       3.53937659E+01]),
                NASA([1394.00, 5000.00],
                     [ 2.42679982E+01,  2.86333840E-02, -9.88040093E-06,
                       1.54317611E-09, -8.99095196E-14, -3.05478683E+04,
                      -1.04458208E+02])),
        transport=gas_transport(geom='nonlinear',
                                diam=6.07,
                                well_depth=475.3,
                                rot_relax=1.0),
        note='thgen')

species(name='iC7H14',
        atoms='C:7 H:14',
        thermo=(NASA([300.00, 1395.00],
                     [-3.30938880E+00,  9.05113458E-02, -6.47606480E-05,
                       2.38759306E-08, -3.57718690E-12, -1.35517265E+04,
                       4.08164660E+01]),
                NASA([1395.00, 5000.00],
                     [ 2.24912357E+01,  2.96685986E-02, -1.00455975E-05,
                       1.54950613E-09, -8.95071232E-14, -2.24019669E+04,
                      -9.74583681E+01])),
        transport=gas_transport(geom='nonlinear',
                                diam=5.943,
                                well_depth=432.5,
                                rot_relax=1.0),
        note='thgen')

species(name='iC7H13',
        atoms='C:7 H:13',
        thermo=(NASA([300.00, 1396.00],
                     [-3.87510891E+00,  9.11860004E-02, -6.79894558E-05,
                       2.61194736E-08, -4.08578594E-12,  4.44229599E+03,
                       4.24657120E+01]),
                NASA([1396.00, 5000.00],
                     [ 2.26058410E+01,  2.77383394E-02, -9.53221699E-06,
                       1.48480972E-09, -8.63512957E-14, -4.56407218E+03,
                      -9.91382375E+01])),
        transport=gas_transport(geom='nonlinear',
                                diam=5.948,
                                well_depth=421.9,
                                rot_relax=1.0),
        note='thgen')

species(name='iC4H9',
        atoms='C:4 H:9',
        thermo=(NASA([300.00, 1371.00],
                     [ 3.00651244E+00,  2.87404049E-02, -2.86301425E-06,
                      -5.92506428E-09,  1.92085423E-12,  3.85126136E+03,
                       1.18650543E+01]),
                NASA([1371.00, 5000.00],
                     [ 1.06256766E+01,  2.10524192E-02, -7.24699414E-06,
                       1.12975765E-09, -6.57275211E-14,  8.98003085E+01,
                      -3.28154286E+01])),
        transport=gas_transport(geom='nonlinear',
                                diam=5.12,
                                well_depth=362.0,
                                rot_relax=1.0),
        note='thgen')

species(name='iC4H8',
        atoms='C:4 H:8',
        thermo=(NASA([300.00, 1388.00],
                     [ 9.39096232E-01,  3.90507649E-02, -2.16375684E-05,
                       5.86955550E-09, -6.13931254E-13, -3.74834503E+03,
                       1.91392713E+01]),
                NASA([1388.00, 5000.00],
                     [ 1.12250420E+01,  1.81815694E-02, -6.20445208E-06,
                       9.61623502E-10, -5.57203448E-14, -7.69990589E+03,
                      -3.73290465E+01])),
        transport=gas_transport(geom='nonlinear',
                                diam=5.038,
                                well_depth=361.9,
                                rot_relax=1.0),
        note='thgen')

species(name='iC4H7',
        atoms='C:4 H:7',
        thermo=(NASA([300.00, 1386.00],
                     [ 2.33005612E-01,  4.23571985E-02, -2.93968519E-05,
                       1.09284827E-08, -1.73005596E-12,  1.45421013E+04,
                       2.22900171E+01]),
                NASA([1386.00, 5000.00],
                     [ 1.20755413E+01,  1.53838035E-02, -5.34471115E-06,
                       8.38457076E-10, -4.89970916E-14,  1.02789716E+04,
                      -4.16938641E+01])),
        transport=gas_transport(geom='nonlinear',
                                diam=5.038,
                                well_depth=361.9,
                                rot_relax=1.0),
        note='thgen')

species(name='iC8H17O',
        atoms='C:8 H:17 O:1',
        thermo=(NASA([300.00, 1400.00],
                     [-3.96943499E+00,  1.18162148E-01, -9.09286549E-05,
                       3.65727157E-08, -6.01087592E-12, -2.62535880E+04,
                       4.56667705E+01]),
                NASA([1400.00, 5000.00],
                     [ 2.92000599E+01,  3.62425322E-02, -1.23912392E-05,
                       1.92327737E-09, -1.11564645E-13, -3.73134757E+04,
                      -1.30872815E+02])),
        transport=gas_transport(geom='nonlinear',
                                diam=6.332,
                                well_depth=513.4,
                                rot_relax=1.0),
        note='thgen')

species(name='iC8H17OOH',
        atoms='C:8 H:18 O:2',
        thermo=(NASA([300.00, 1395.00],
                     [-3.94285031E+00,  1.31014400E-01, -1.04685507E-04,
                       4.37791373E-08, -7.48600810E-12, -4.47722798E+04,
                       4.66425335E+01]),
                NASA([1395.00, 5000.00],
                     [ 3.33786590E+01,  3.76091799E-02, -1.30114163E-05,
                       2.03563516E-09, -1.18738112E-13, -5.71706588E+04,
                      -1.51690420E+02])),
        transport=gas_transport(geom='nonlinear',
                                diam=6.41,
                                well_depth=530.7,
                                rot_relax=1.0),
        note='thgen')

species(name='N2',
        atoms='N:2',
        thermo=(NASA([200.00, 1000.00],
                     [ 3.53096280E+00, -1.23659500E-04, -5.02993390E-07,
                       2.43527680E-09, -1.40879540E-12, -1.04696370E+03,
                       2.96743910E+00]),
                NASA([1000.00, 6000.00],
                     [ 2.95254070E+00,  1.39688380E-03, -4.92625770E-07,
                       7.86000910E-11, -4.60749780E-15, -9.23937530E+02,
                       5.87182210E+00])),
        transport=gas_transport(geom='linear',
                                diam=3.621,
                                well_depth=97.53,
                                polar=1.76,
                                rot_relax=4.0))

species(name='O',
        atoms='O:1',
        thermo=(NASA([200.00, 1000.00],
                     [ 3.16826710E+00, -3.27931884E-03,  6.64306396E-06,
                      -6.12806624E-09,  2.11265971E-12,  2.91222592E+04,
                       2.05193346E+00]),
                NASA([1000.00, 6000.00],
                     [ 2.54363697E+00, -2.73162486E-05, -4.19029520E-09,
                       4.95481845E-12, -4.79553694E-16,  2.92260120E+04,
                       4.92229457E+00])),
        transport=gas_transport(geom='atom',
                                diam=2.75,
                                well_depth=80.0))

species(name='O2',
        atoms='O:2',
        thermo=(NASA([200.00, 1000.00],
                     [ 3.78245636E+00, -2.99673415E-03,  9.84730200E-06,
                      -9.68129508E-09,  3.24372836E-12, -1.06394356E+03,
                       3.65767573E+00]),
                NASA([1000.00, 6000.00],
                     [ 3.66096083E+00,  6.56365523E-04, -1.41149485E-07,
                       2.05797658E-11, -1.29913248E-15, -1.21597725E+03,
                       3.41536184E+00])),
        transport=gas_transport(geom='linear',
                                diam=3.458,
                                well_depth=107.4,
                                polar=1.6,
                                rot_relax=3.8))

species(name='H',
        atoms='H:1',
        thermo=(NASA([200.00, 1000.00],
                     [ 2.50000000E+00,  0.00000000E+00,  0.00000000E+00,
                       0.00000000E+00,  0.00000000E+00,  2.54736600E+04,
                      -4.46682850E-01]),
                NASA([1000.00, 6000.00],
                     [ 2.50000000E+00,  0.00000000E+00,  0.00000000E+00,
                       0.00000000E+00,  0.00000000E+00,  2.54736600E+04,
                      -4.46682850E-01])),
        transport=gas_transport(geom='atom',
                                diam=2.05,
                                well_depth=145.0))

species(name='OH',
        atoms='H:1 O:1',
        thermo=(NASA([200.00, 1000.00],
                     [ 3.99201543E+00, -2.40131752E-03,  4.61793841E-06,
                      -3.88113333E-09,  1.36411470E-12,  3.35711894E+03,
                      -1.03925458E-01]),
                NASA([1000.00, 6000.00],
                     [ 2.83864607E+00,  1.10725586E-03, -2.93914978E-07,
                       4.20524247E-11, -2.42169092E-15,  3.68599690E+03,
                       5.84452662E+00])),
        transport=gas_transport(geom='linear',
                                diam=2.75,
                                well_depth=80.0))

species(name='HO2',
        atoms='H:1 O:2',
        thermo=(NASA([200.00, 1000.00],
                     [ 4.30178800E+00, -4.74902010E-03,  2.11579530E-05,
                      -2.42759610E-08,  9.29206700E-12,  4.46212417E+02,
                       3.71670100E+00]),
                NASA([1000.00, 6000.00],
                     [ 4.17226590E+00,  1.88120980E-03, -3.46292970E-07,
                       1.94685160E-11,  1.76091530E-16,  2.13222508E+02,
                       2.95779740E+00])),
        transport=gas_transport(geom='nonlinear',
                                diam=3.458,
                                well_depth=107.4,
                                rot_relax=1.0))

species(name='H2',
        atoms='H:2',
        thermo=(NASA([200.00, 1000.00],
                     [ 2.34430290E+00,  7.98042480E-03, -1.94779170E-05,
                       2.01569670E-08, -7.37602890E-12, -9.17924130E+02,
                       6.83002180E-01]),
                NASA([1000.00, 6000.00],
                     [ 2.93283050E+00,  8.26598020E-04, -1.46400570E-07,
                       1.54098510E-11, -6.88796150E-16, -8.13055820E+02,
                      -1.02431640E+00])),
        transport=gas_transport(geom='linear',
                                diam=2.92,
                                well_depth=38.0,
                                polar=0.79,
                                rot_relax=280.0))

species(name='H2O',
        atoms='H:2 O:1',
        thermo=(NASA([200.00, 1000.00],
                     [ 4.19863520E+00, -2.03640170E-03,  6.52034160E-06,
                      -5.48792690E-09,  1.77196800E-12, -3.02937260E+04,
                      -8.49009010E-01]),
                NASA([1000.00, 6000.00],
                     [ 2.67703890E+00,  2.97318160E-03, -7.73768890E-07,
                       9.44335140E-11, -4.26899910E-15, -2.98858940E+04,
                       6.88255000E+00])),
        transport=gas_transport(geom='nonlinear',
                                diam=2.605,
                                well_depth=572.4,
                                dipole=1.844,
                                rot_relax=4.0))

species(name='H2O2',
        atoms='H:2 O:2',
        thermo=(NASA([200.00, 1000.00],
                     [ 4.27611269E+00, -5.42822417E-04,  1.67335701E-05,
                      -2.15770813E-08,  8.62454363E-12, -1.77035843E+04,
                       3.43505074E+00]),
                NASA([1000.00, 6000.00],
                     [ 4.57333537E+00,  4.04984070E-03, -1.29479479E-06,
                       1.97281710E-10, -1.13402846E-14, -1.80040975E+04,
                       7.04278488E-01])),
        transport=gas_transport(geom='nonlinear',
                                diam=3.458,
                                well_depth=107.4,
                                rot_relax=3.8))

species(name='CO',
        atoms='C:1 O:1',
        thermo=(NASA([200.00, 1000.00],
                     [ 3.57953350E+00, -6.10353690E-04,  1.01681430E-06,
                       9.07005860E-10, -9.04424490E-13, -1.43440860E+04,
                       3.50840930E+00]),
                NASA([1000.00, 6000.00],
                     [ 3.04848590E+00,  1.35172810E-03, -4.85794050E-07,
                       7.88536440E-11, -4.69807460E-15, -1.42661170E+04,
                       6.01709770E+00])),
        transport=gas_transport(geom='linear',
                                diam=3.65,
                                well_depth=98.1,
                                polar=1.95,
                                rot_relax=1.8))

species(name='CO2',
        atoms='C:1 O:2',
        thermo=(NASA([200.00, 1000.00],
                     [ 2.35681300E+00,  8.98412990E-03, -7.12206320E-06,
                       2.45730080E-09, -1.42885480E-13, -4.83719710E+04,
                       9.90090350E+00]),
                NASA([1000.00, 6000.00],
                     [ 4.63651110E+00,  2.74145690E-03, -9.95897590E-07,
                       1.60386660E-10, -9.16198570E-15, -4.90249040E+04,
                      -1.93489550E+00])),
        transport=gas_transport(geom='linear',
                                diam=3.763,
                                well_depth=244.0,
                                polar=2.65,
                                rot_relax=2.1))

species(name='CH',
        atoms='C:1 H:1',
        thermo=(NASA([200.00, 1000.00],
                     [ 3.48981660E+00,  3.23835540E-04, -1.68899060E-06,
                       3.16217330E-09, -1.40609070E-12,  7.06888776E+04,
                       2.08401110E+00]),
                NASA([1000.00, 6000.00],
                     [ 2.52090620E+00,  1.76537260E-03, -4.61475810E-07,
                       5.92885670E-11, -3.34732090E-15,  7.10230206E+04,
                       7.40532230E+00])),
        transport=gas_transport(geom='linear',
                                diam=2.75,
                                well_depth=80.0))

species(name='HCO',
        atoms='C:1 H:1 O:1',
        thermo=(NASA([200.00, 1000.00],
                     [ 4.22118584E+00, -3.24392532E-03,  1.37799446E-05,
                      -1.33144093E-08,  4.33768865E-12,  3.83956496E+03,
                       3.39437243E+00]),
                NASA([1000.00, 6000.00],
                     [ 3.64896209E+00,  3.08090819E-03, -1.12429876E-06,
                       1.86308085E-10, -1.13951828E-14,  3.71209048E+03,
                       5.06147406E+00])),
        transport=gas_transport(geom='nonlinear',
                                diam=3.59,
                                well_depth=498.0))

species(name='CH2',
        atoms='C:1 H:2',
        thermo=(NASA([200.00, 1000.00],
                     [ 4.17936550E+00, -2.21785530E-03,  7.96536020E-06,
                      -6.91273390E-09,  2.24753180E-12,  4.57508570E+04,