"""

 ===== GASOLINE PRF REDUCED MECHANISM 2.0 (#190128A) =====
       WITH ETHANOL

 FUEL: NC7H16(N-HEPTANE)
       IC8H18(ISOOCTANE, 2,2,4-TRIMETHYLPENTANE)
       C2H5OH(ETHANOL)

"""

units(length='cm', time='s', quantity='mol', act_energy='cal/mol')

ideal_gas(name='gas',
          elements="H O C N Ar",
          species="""NC7H16       NC7H15       NC7H15OO     NC7H14OOH
                     NHOOC7H14OO  NC7KET       NC5H9O       NC5H11
                     NC5H10       NC5H9        NC7H15O      NC7H15OOH
                     N2           O            O2           H
                     OH           HO2          H2           H2O
                     H2O2         CO           CO2          CH
                     HCO          CH2          CH2O         CH3
                     CH3O         CH3OO        CH4          CH3OOH
                     HCCO         C2H2         CH2CO        C2H3
                     CH2CHO       CH3CO        CH3CO2       CH3C(O)OO
                     C2H4         CH3CHO       CH3C(O)OOH   C2H5
                     PC2H4OH      C2H5O        C2H5OO       C2H6
                     C2H5OOH      AC3H5        C3H6         IC3H7
                     AR""",
          reactions='all',
          transport='Mix',
          initial_state=state(temperature=300.0, pressure=OneAtm))

#-------------------------------------------------------------------------------
# Species data
#-------------------------------------------------------------------------------

species(name='NC7H16',
        atoms='C:7 H:16',
        thermo=(NASA([300.00, 1391.00],
                     [-1.26871064E+00,  8.54348955E-02, -5.25290944E-05,
                       1.62884286E-08, -2.02214778E-12, -2.56586562E+04,
                       3.53739478E+01]),
                NASA([1391.00, 5000.00],
                     [ 2.22177923E+01,  3.47632604E-02, -1.18388528E-05,
                       1.83265875E-09, -1.06109932E-13, -3.42772591E+04,
                      -9.23217457E+01])),
        transport=gas_transport(geom='nonlinear',
                                diam=6.094,
                                well_depth=415.5,
                                rot_relax=1.0),
        note='THGEN')

species(name='NC7H15',
        atoms='C:7 H:15',
        thermo=(NASA([300.00, 1382.00],
                     [-3.88848544E-02,  7.56801544E-02, -4.07609055E-05,
                       9.33601461E-09, -4.94482163E-13, -2.35589863E+03,
                       3.37383486E+01]),
                NASA([1382.00, 5000.00],
                     [ 2.16358383E+01,  3.23340841E-02, -1.09280566E-05,
                       1.68368616E-09, -9.71844623E-14, -1.05866176E+04,
                      -8.52122680E+01])),
        transport=gas_transport(geom='nonlinear',
                                diam=6.094,
                                well_depth=415.5,
                                rot_relax=1.0),
        note='THGEN')

species(name='NC7H15OO',
        atoms='C:7 H:15 O:2',
        thermo=(NASA([300.00, 1390.00],
                     [ 3.59006547E-01,  9.42245153E-02, -6.66804487E-05,
                       2.54724302E-08, -4.13086673E-12, -2.03728288E+04,
                       3.28613586E+01]),
                NASA([1390.00, 5000.00],
                     [ 2.60523050E+01,  3.43839001E-02, -1.18715005E-05,
                       1.85452176E-09, -1.08053193E-13, -2.94761134E+04,
                      -1.05463689E+02])),
        transport=gas_transport(geom='nonlinear',
                                diam=6.238,
                                well_depth=506.3,
                                rot_relax=1.0),
        note='THGEN')

species(name='NC7H14OOH',
        atoms='C:7 H:15 O:2',
        thermo=(NASA([300.00, 1389.00],
                     [ 8.68010527E-01,  9.24071780E-02, -6.23385915E-05,
                       2.16105189E-08, -3.07642818E-12, -1.53160279E+04,
                       3.24663802E+01]),
                NASA([1389.00, 5000.00],
                     [ 2.74573337E+01,  3.26265036E-02, -1.12386517E-05,
                       1.75329980E-09, -1.02071273E-13, -2.48239746E+04,
                      -1.11231599E+02])),
        transport=gas_transport(geom='nonlinear',
                                diam=6.238,
                                well_depth=506.3,
                                rot_relax=1.0),
        note='THGEN')

species(name='NHOOC7H14OO',
        atoms='C:7 H:15 O:4',
        thermo=(NASA([300.00, 1390.00],
                     [ 1.41185977E+00,  1.10703712E-01, -8.70872996E-05,
                       3.63452156E-08, -6.27852573E-12, -3.33720367E+04,
                       3.07923596E+01]),
                NASA([1390.00, 5000.00],
                     [ 3.28360162E+01,  3.32763432E-02, -1.15831469E-05,
                       1.81955309E-09, -1.06432285E-13, -4.40287923E+04,
                      -1.36795390E+02])),
        transport=gas_transport(geom='nonlinear',
                                diam=6.376,
                                well_depth=596.1,
                                rot_relax=1.0),
        note='THGEN')

species(name='NC7KET',
        atoms='C:7 H:14 O:3',
        thermo=(NASA([300.00, 1386.00],
                     [ 2.32186256E+00,  9.45240193E-02, -6.99211946E-05,
                       2.79874447E-08, -4.74465002E-12, -5.27085951E+04,
                       2.45959611E+01]),
                NASA([1386.00, 5000.00],
                     [ 2.86566981E+01,  3.21565793E-02, -1.11959188E-05,
                       1.75889497E-09, -1.02888014E-13, -6.19744506E+04,
                      -1.16883589E+02])),
        transport=gas_transport(geom='nonlinear',
                                diam=6.265,
                                well_depth=556.4,
                                rot_relax=1.0),
        note='THGEN')

species(name='NC5H9O',
        atoms='C:5 H:9 O:1',
        thermo=(NASA([300.00, 1379.00],
                     [ 2.36413323E+00,  4.95786327E-02, -2.90721987E-05,
                       8.29294303E-09, -9.03229011E-13, -1.14543903E+04,
                       1.96153510E+01]),
                NASA([1379.00, 5000.00],
                     [ 1.64012943E+01,  2.04003752E-02, -6.93873682E-06,
                       1.07367226E-09, -6.21614279E-14, -1.67278682E+04,
                      -5.71188765E+01])),
        transport=gas_transport(geom='nonlinear',
                                diam=5.605,
                                well_depth=425.2,
                                rot_relax=1.0),
        note='THGEN')

species(name='NC5H11',
        atoms='C:5 H:11',
        thermo=(NASA([300.00, 1390.00],
                     [ 5.79609854E-02,  5.60823625E-02, -3.31785211E-05,
                       9.79021087E-09, -1.14223950E-12,  4.71440753E+03,
                       2.86918308E+01]),
                NASA([1390.00, 5000.00],
                     [ 1.52896647E+01,  2.39755267E-02, -8.18341222E-06,
                       1.26861432E-09, -7.35224954E-14, -9.72919304E+02,
                      -5.44277267E+01])),
        transport=gas_transport(geom='nonlinear',
                                diam=5.507,
                                well_depth=378.4,
                                rot_relax=1.0),
        note='THGEN')

species(name='NC5H10',
        atoms='C:5 H:10',
        thermo=(NASA([300.00, 1392.00],
                     [-1.07237458E+00,  5.74872482E-02, -3.75589723E-05,
                       1.28055098E-08, -1.81083209E-12, -4.46482377E+03,
                       3.23144603E+01]),
                NASA([1392.00, 5000.00],
                     [ 1.45837757E+01,  2.24057409E-02, -7.63231344E-06,
                       1.18163580E-09, -6.84206955E-14, -1.00871422E+04,
                      -5.23577225E+01])),
        transport=gas_transport(geom='nonlinear',
                                diam=5.395,
                                well_depth=378.4,
                                rot_relax=1.0),
        note='THGEN')

species(name='NC5H9',
        atoms='C:5 H:9',
        thermo=(NASA([300.00, 1388.00],
                     [-1.04797696E+00,  5.41768083E-02, -3.45284353E-05,
                       1.11684416E-08, -1.47643393E-12,  1.25116524E+04,
                       3.11242264E+01]),
                NASA([1388.00, 5000.00],
                     [ 1.45041351E+01,  2.05083694E-02, -7.10654706E-06,
                       1.11295524E-09, -6.49627735E-14,  6.79087910E+03,
                      -5.34346369E+01])),
        transport=gas_transport(geom='nonlinear',
                                diam=5.395,
                                well_depth=378.4,
                                rot_relax=1.0),
        note='THGEN')

species(name='NC7H15O',
        atoms='C:7 H:15 O:1',
        thermo=(NASA([300.00, 1395.00],
                     [-1.08852878E+00,  9.23114953E-02, -6.44357297E-05,
                       2.36757686E-08, -3.61001227E-12, -1.99930305E+04,
                       3.70751744E+01]),
                NASA([1395.00, 5000.00],
                     [ 2.43050592E+01,  3.31299633E-02, -1.13048045E-05,
                       1.75223806E-09, -1.01542653E-13, -2.88617678E+04,
                      -9.94127348E+01])),
        transport=gas_transport(geom='nonlinear',
                                diam=6.156,
                                well_depth=488.5,
                                rot_relax=1.0),
        note='THGEN')

species(name='NC7H15OOH',
        atoms='C:7 H:16 O:2',
        thermo=(NASA([300.00, 1390.00],
                     [-5.93636262E-01,  1.02847108E-01, -7.42877994E-05,
                       2.83328117E-08, -4.51137547E-12, -3.85781122E+04,
                       3.59212486E+01]),
                NASA([1390.00, 5000.00],
                     [ 2.85696040E+01,  3.45362690E-02, -1.19635215E-05,
                       1.87319578E-09, -1.09321273E-13, -4.87912635E+04,
                      -1.20812558E+02])),
        transport=gas_transport(geom='nonlinear',
                                diam=6.238,
                                well_depth=506.3,
                                rot_relax=1.0),
        note='THGEN')

species(name='N2',
        atoms='N:2',
        thermo=(NASA([200.00, 1000.00],
                     [ 3.53096280E+00, -1.23659500E-04, -5.02993390E-07,
                       2.43527680E-09, -1.40879540E-12, -1.04696370E+03,
                       2.96743910E+00]),
                NASA([1000.00, 6000.00],
                     [ 2.95254070E+00,  1.39688380E-03, -4.92625770E-07,
                       7.86000910E-11, -4.60749780E-15, -9.23937530E+02,
                       5.87182210E+00])),
        transport=gas_transport(geom='linear',
                                diam=3.621,
                                well_depth=97.53,
                                polar=1.76,
                                rot_relax=4.0))

species(name='O',
        atoms='O:1',
        thermo=(NASA([200.00, 1000.00],
                     [ 3.16826710E+00, -3.27931884E-03,  6.64306396E-06,
                      -6.12806624E-09,  2.11265971E-12,  2.91222592E+04,
                       2.05193346E+00]),
                NASA([1000.00, 6000.00],
                     [ 2.54363697E+00, -2.73162486E-05, -4.19029520E-09,
                       4.95481845E-12, -4.79553694E-16,  2.92260120E+04,
                       4.92229457E+00])),
        transport=gas_transport(geom='atom',
                                diam=2.75,
                                well_depth=80.0))

species(name='O2',
        atoms='O:2',
        thermo=(NASA([200.00, 1000.00],
                     [ 3.78245636E+00, -2.99673415E-03,  9.84730200E-06,
                      -9.68129508E-09,  3.24372836E-12, -1.06394356E+03,
                       3.65767573E+00]),
                NASA([1000.00, 6000.00],
                     [ 3.66096083E+00,  6.56365523E-04, -1.41149485E-07,
                       2.05797658E-11, -1.29913248E-15, -1.21597725E+03,
                       3.41536184E+00])),
        transport=gas_transport(geom='linear',
                                diam=3.458,
                                well_depth=107.4,
                                polar=1.6,
                                rot_relax=3.8))

species(name='H',
        atoms='H:1',
        thermo=(NASA([200.00, 1000.00],
                     [ 2.50000000E+00,  0.00000000E+00,  0.00000000E+00,
                       0.00000000E+00,  0.00000000E+00,  2.54736600E+04,
                      -4.46682850E-01]),
                NASA([1000.00, 6000.00],
                     [ 2.50000000E+00,  0.00000000E+00,  0.00000000E+00,
                       0.00000000E+00,  0.00000000E+00,  2.54736600E+04,
                      -4.46682850E-01])),
        transport=gas_transport(geom='atom',
                                diam=2.05,
                                well_depth=145.0))

species(name='OH',
        atoms='H:1 O:1',
        thermo=(NASA([200.00, 1000.00],
                     [ 3.99201543E+00, -2.40131752E-03,  4.61793841E-06,
                      -3.88113333E-09,  1.36411470E-12,  3.35711894E+03,
                      -1.03925458E-01]),
                NASA([1000.00, 6000.00],
                     [ 2.83864607E+00,  1.10725586E-03, -2.93914978E-07,
                       4.20524247E-11, -2.42169092E-15,  3.68599690E+03,
                       5.84452662E+00])),
        transport=gas_transport(geom='linear',
                                diam=2.75,
                                well_depth=80.0))

species(name='HO2',
        atoms='H:1 O:2',
        thermo=(NASA([200.00, 1000.00],
                     [ 4.30178800E+00, -4.74902010E-03,  2.11579530E-05,
                      -2.42759610E-08,  9.29206700E-12,  4.46212417E+02,
                       3.71670100E+00]),
                NASA([1000.00, 6000.00],
                     [ 4.17226590E+00,  1.88120980E-03, -3.46292970E-07,
                       1.94685160E-11,  1.76091530E-16,  2.13222508E+02,
                       2.95779740E+00])),
        transport=gas_transport(geom='nonlinear',
                                diam=3.458,
                                well_depth=107.4,
                                rot_relax=1.0))

species(name='H2',
        atoms='H:2',
        thermo=(NASA([200.00, 1000.00],
                     [ 2.34430290E+00,  7.98042480E-03, -1.94779170E-05,
                       2.01569670E-08, -7.37602890E-12, -9.17924130E+02,
                       6.83002180E-01]),
                NASA([1000.00, 6000.00],
                     [ 2.93283050E+00,  8.26598020E-04, -1.46400570E-07,
                       1.54098510E-11, -6.88796150E-16, -8.13055820E+02,
                      -1.02431640E+00])),
        transport=gas_transport(geom='linear',
                                diam=2.92,
                                well_depth=38.0,
                                polar=0.79,
                                rot_relax=280.0))

species(name='H2O',
        atoms='H:2 O:1',
        thermo=(NASA([200.00, 1000.00],
                     [ 4.19863520E+00, -2.03640170E-03,  6.52034160E-06,
                      -5.48792690E-09,  1.77196800E-12, -3.02937260E+04,
                      -8.49009010E-01]),
                NASA([1000.00, 6000.00],
                     [ 2.67703890E+00,  2.97318160E-03, -7.73768890E-07,
                       9.44335140E-11, -4.26899910E-15, -2.98858940E+04,
                       6.88255000E+00])),
        transport=gas_transport(geom='nonlinear',
                                diam=2.605,
                                well_depth=572.4,
                                dipole=1.844,
                                rot_relax=4.0))

species(name='H2O2',
        atoms='H:2 O:2',
        thermo=(NASA([200.00, 1000.00],
                     [ 4.27611269E+00, -5.42822417E-04,  1.67335701E-05,
                      -2.15770813E-08,  8.62454363E-12, -1.77035843E+04,
                       3.43505074E+00]),
                NASA([1000.00, 6000.00],
                     [ 4.57333537E+00,  4.04984070E-03, -1.29479479E-06,
                       1.97281710E-10, -1.13402846E-14, -1.80040975E+04,
                       7.04278488E-01])),
        transport=gas_transport(geom='nonlinear',
                                diam=3.458,
                                well_depth=107.4,
                                rot_relax=3.8))

species(name='CO',
        atoms='C:1 O:1',
        thermo=(NASA([200.00, 1000.00],
                     [ 3.57953350E+00, -6.10353690E-04,  1.01681430E-06,
                       9.07005860E-10, -9.04424490E-13, -1.43440860E+04,
                       3.50840930E+00]),
                NASA([1000.00, 6000.00],
                     [ 3.04848590E+00,  1.35172810E-03, -4.85794050E-07,
                       7.88536440E-11, -4.69807460E-15, -1.42661170E+04,
                       6.01709770E+00])),
        transport=gas_transport(geom='linear',
                                diam=3.65,
                                well_depth=98.1,
                                polar=1.95,
                                rot_relax=1.8))

species(name='CO2',
        atoms='C:1 O:2',
        thermo=(NASA([200.00, 1000.00],
                     [ 2.35681300E+00,  8.98412990E-03, -7.12206320E-06,
                       2.45730080E-09, -1.42885480E-13, -4.83719710E+04,
                       9.90090350E+00]),
                NASA([1000.00, 6000.00],
                     [ 4.63651110E+00,  2.74145690E-03, -9.95897590E-07,
                       1.60386660E-10, -9.16198570E-15, -4.90249040E+04,
                      -1.93489550E+00])),
        transport=gas_transport(geom='linear',
                                diam=3.763,
                                well_depth=244.0,
                                polar=2.65,
                                rot_relax=2.1))

species(name='CH',
        atoms='C:1 H:1',
        thermo=(NASA([200.00, 1000.00],
                     [ 3.48981660E+00,  3.23835540E-04, -1.68899060E-06,
                       3.16217330E-09, -1.40609070E-12,  7.06888776E+04,
                       2.08401110E+00]),
                NASA([1000.00, 6000.00],
                     [ 2.52090620E+00,  1.76537260E-03, -4.61475810E-07,
                       5.92885670E-11, -3.34732090E-15,  7.10230206E+04,
                       7.40532230E+00])),
        transport=gas_transport(geom='linear',
                                diam=2.75,
                                well_depth=80.0))

species(name='HCO',
        atoms='C:1 H:1 O:1',
        thermo=(NASA([200.00, 1000.00],
                     [ 4.22118584E+00, -3.24392532E-03,  1.37799446E-05,
                      -1.33144093E-08,  4.33768865E-12,  3.83956496E+03,
                       3.39437243E+00]),
                NASA([1000.00, 6000.00],
                     [ 3.64896209E+00,  3.08090819E-03, -1.12429876E-06,
                       1.86308085E-10, -1.13951828E-14,  3.71209048E+03,
                       5.06147406E+00])),
        transport=gas_transport(geom='nonlinear',
                                diam=3.59,
                                well_depth=498.0))

species(name='CH2',
        atoms='C:1 H:2',
        thermo=(NASA([200.00, 1000.00],
                     [ 4.17936550E+00, -2.21785530E-03,  7.96536020E-06,
                      -6.91273390E-09,  2.24753180E-12,  4.57508570E+04,
                      -7.61137030E-03]),
                NASA([1000.00, 6000.00],
                     [ 2.53871220E+00,  3.82254910E-03, -1.28613040E-06,
                       1.98003080E-10, -1.14657430E-14,  4.61292530E+04,
                       8.10546480E+00])),
        transport=gas_transport(geom='linear',
                                diam=3.8,
                                well_depth=144.0))

species(name='CH2O',
        atoms='C:1 H:2 O:1',
        thermo=(NASA([200.00, 1000.00],
                     [ 4.79370360E+00, -9.90815180E-03,  3.73214590E-05,
                      -3.79279020E-08,  1.31770150E-11, -1.43089550E+04,
                       6.02887020E-01]),
                NASA([1000.00, 6000.00],
                     [ 3.16948070E+00,  6.19327420E-03, -2.25059810E-06,
                       3.65982450E-10, -2.20154100E-14, -1.44784250E+04,
                       6.04235330E+00])),
        transport=gas_transport(geom='nonlinear',
                                diam=3.59,
                                well_depth=498.0,
                                rot_relax=2.0))

species(name='CH3',
        atoms='C:1 H:3',
        thermo=(NASA([200.00, 1000.00],
                     [ 3.67333750E+00,  2.00205590E-03,  5.78531350E-06,
                      -6.98730540E-09,  2.60555990E-12,  1.64161969E+04,
                       1.60183150E+00]),
                NASA([1000.00, 6000.00],
                     [ 2.96697350E+00,  5.79366720E-03, -1.96948090E-06,
                       3.05569360E-10, -1.77678430E-14,  1.65131329E+04,
                       4.79188030E+00])),
        transport=gas_transport(geom='linear',
                                diam=3.8,
                                well_depth=144.0))

species(name='CH3O',
        atoms='C:1 H:3 O:1',
        thermo=(NASA([200.00, 1000.00],
                     [ 3.26523370E+00,  3.30316650E-03,  1.70488010E-05,
                      -2.27096300E-08,  8.80717680E-12,  8.38550421E+02,
                       7.42573570E+00]),
                NASA([1000.00, 6000.00],
                     [ 4.26533080E+00,  7.85764060E-03, -2.84104380E-06,
                       4.60451900E-10, -2.76319060E-14,  1.65605687E+02,
                       3.93099470E-01])),
        transport=gas_transport(geom='nonlinear',
                                diam=3.69,
                                well_depth=417.0,
                                dipole=1.7,
                                rot_relax=2.0))

species(name='CH3OO',
        atoms='C:1 H:3 O:2',
        thermo=(NASA([300.00, 1385.00],
                     [ 4.26146906E+00,  1.00873599E-02, -3.21506184E-06,
                       2.09409267E-10,  4.18339103E-14, -6.84394259E+02,
                       5.16330320E+00]),
                NASA([1385.00, 5000.00],
                     [ 5.95787891E+00,  7.90728626E-03, -2.68246234E-06,
                       4.13891337E-10, -2.39007330E-14, -1.53574838E+03,
                      -4.71963886E+00])),
        transport=gas_transport(geom='nonlinear',
                                diam=3.626,
                                well_depth=481.8,
                                rot_relax=1.0),
        note='7/13/98THERM')

species(name='CH4',
        atoms='C:1 H:4',
        thermo=(NASA([200.00, 1000.00],
                     [ 5.14987920E+00, -1.36710080E-02,  4.91801300E-05,
                      -4.84744030E-08,  1.66694410E-11, -1.02466480E+04,
                      -4.64132440E+00]),
                NASA([1000.00, 6000.00],
                     [ 1.63542560E+00,  1.00844310E-02, -3.36923690E-06,
                       5.34972800E-10, -3.15528170E-14, -1.00056030E+04,
                       9.99369530E+00])),
        transport=gas_transport(geom='nonlinear',
                                diam=3.746,
                                well_depth=141.4,
                                polar=2.6,
                                rot_relax=13.0))

species(name='CH3OOH',
        atoms='C:1 H:4 O:2',
        thermo=(NASA([300.00, 1390.00],
                     [ 3.23442817E+00,  1.90129767E-02, -1.13386287E-05,
                       3.40306653E-09, -4.11830222E-13, -1.77197926E+04,
                       9.25623949E+00]),
                NASA([1390.00, 5000.00],
                     [ 8.43117091E+00,  8.06817909E-03, -2.77094921E-06,
                       4.31332243E-10, -2.50692146E-14, -1.96678771E+04,
                      -1.91170629E+01])),
        transport=gas_transport(geom='nonlinear',
                                diam=3.626,
                                well_depth=481.8,
                                rot_relax=1.0),
        note='7/13/98THERM')

species(name='HCCO',
        atoms='C:2 H:1 O:1',
        thermo=(NASA([200.00, 1000.00],
                     [ 2.33501180E+00,  1.70100830E-02, -2.20188670E-05,
                       1.54064470E-08, -4.34550970E-12,  2.00502990E+04,
                       1.19767290E+01]),
                NASA([1000.00, 6000.00],
                     [ 5.84690060E+00,  3.64059600E-03, -1.29590070E-06,
                       2.07969190E-10, -1.24000220E-14,  1.92484960E+04,
                      -5.29165330E+00])),
        transport=gas_transport(geom='nonlinear',
                                diam=2.5,
                                well_depth=150.0,
                                rot_relax=1.0))

species(name='C2H2',
        atoms='C:2 H:2',
        thermo=(NASA([200.00, 1000.00],
                     [ 8.08691080E-01,  2.33613950E-02, -3.55166360E-05,
                       2.80145660E-08, -8.50044590E-12,  2.63327640E+04,
                       1.39396710E+01]),
                NASA([1000.00, 6000.00],
                     [ 4.65870470E+00,  4.88409490E-03, -1.60835630E-06,
                       2.46987870E-10, -1.38615050E-14,  2.56632180E+04,
                      -3.99790740E+00])),
        transport=gas_transport(geom='linear',
                                diam=3.721,
                                well_depth=265.3,
                                rot_relax=2.5))

species(name='CH2CO',
        atoms='C:2 H:2 O:1',
        thermo=(NASA([200.00, 1000.00],
                     [ 2.14011650E+00,  1.80883680E-02, -1.73242160E-05,
                       9.27674770E-09, -1.99150110E-12, -7.26981595E+03,
                       1.21986990E+01]),
                NASA([1000.00, 6000.00],
                     [ 5.75779010E+00,  6.34965070E-03, -2.25844070E-06,
                       3.62084620E-10, -2.15690300E-14, -8.20537635E+03,
                      -6.10640370E+00])),
        transport=gas_transport(geom='nonlinear',
                                diam=4.191,
                                well_depth=314.3,
                                dipole=1.4,
                                rot_relax=2.0))

species(name='C2H3',
        atoms='C:2 H:3',
        thermo=(NASA([200.00, 1000.00],
                     [ 3.00196020E+00,  3.03043540E-03,  2.44443150E-05,
                      -3.58102420E-08,  1.51087000E-11,  3.48681730E+04,
                       9.33044950E+00]),
                NASA([1000.00, 6000.00],
                     [ 4.70253100E+00,  7.26422830E-03, -2.58019920E-06,
                       4.13199440E-10, -2.45914920E-14,  3.40296750E+04,
                      -1.42937140E+00])),
        transport=gas_transport(geom='nonlinear',
                                diam=3.721,
                                well_depth=265.3,
                                rot_relax=1.0))

species(name='CH2CHO',
        atoms='C:2 H:3 O:1',
        thermo=(NASA([300.00, 1000.00],
                     [ 3.40906240E+00,  1.07385740E-02,  1.89149250E-06,
                      -7.15858310E-09,  2.86738510E-12, -2.34695926E+02,
                       9.57145350E+00]),
                NASA([1000.00, 5000.00],
                     [ 5.97566990E+00,  8.13059140E-03, -2.74362450E-06,
                       4.07030410E-10, -2.17601710E-14, -1.26585075E+03,
                      -5.03208790E+00])),
        transport=gas_transport(geom='nonlinear',
                                diam=3.97,
                                well_depth=436.0,
                                rot_relax=2.0))

species(name='CH3CO',
        atoms='C:2 H:3 O:1',
        thermo=(NASA([300.00, 1000.00],
                     [ 3.12527800E+00,  9.77822000E-03,  4.52144800E-06,
                      -9.00946200E-09,  3.19371800E-12, -4.10850800E+03,
                       1.12288500E+01]),
                NASA([1000.00, 5000.00],
                     [ 5.61227900E+00,  8.44988600E-03, -2.85414700E-06,
                       4.23837600E-10, -2.26840400E-14, -5.18786300E+03,
                      -3.27494900E+00])),
        transport=gas_transport(geom='nonlinear',
                                diam=3.97,
                                well_depth=436.0,
                                rot_relax=2.0),
        note='120186')

species(name='CH3CO2',
        atoms='C:2 H:3 O:2',
        thermo=(NASA([300.00, 1395.00],
                     [ 1.37440768E+00,  2.49115604E-02, -1.74308894E-05,
                       6.24799508E-09, -9.09516835E-13, -2.72330150E+04,
                       1.81405454E+01]),
                NASA([1395.00, 5000.00],
                     [ 8.54059736E+00,  8.32951214E-03, -2.84722010E-06,
                       4.41927196E-10, -2.56373394E-14, -2.97290678E+04,
                      -2.03883545E+01])),
        transport=gas_transport(geom='nonlinear',
                                diam=3.97,
                                well_depth=436.0,
                                rot_relax=2.0),
        note='2/14/95THERM')

species(name='CH3C(O)OO',
        atoms='C:2 H:3 O:3',
        thermo=(NASA([300.00, 1396.00],
                     [ 2.61619505E+00,  2.94830898E-02, -2.23952554E-05,
                       8.56474251E-09, -1.31255496E-12, -1.62923875E+04,
                       1.64911398E+01]),
                NASA([1396.00, 5000.00],
                     [ 1.15641474E+01,  8.02672958E-03, -2.77497463E-06,
                       4.34069277E-10, -2.53202435E-14, -1.93142188E+04,
                      -3.13182392E+01])),
        transport=gas_transport(geom='nonlinear',
                                diam=3.97,
                                well_depth=436.0,
                                rot_relax=2.0),
        note='6/26/95THERM')

species(name='C2H4',
        atoms='C:2 H:4',
        thermo=(NASA([300.00, 1000.00],
                     [ 1.21766000E+00,  1.30026750E-02,  3.50374470E-06,