ELEMENTS
H O C N AR
END
SPECIES
NC7H16 NC7H15 NC7H15OO NC7H14OOH NHOOC7H14OO
NC7KET NC5H9O NC5H11 NC5H10 NC5H9
NC7H15O NC7H15OOH N2 O O2
H OH HO2 H2 H2O
H2O2 CO CO2 CH HCO
CH2 CH2O CH3 CH3O CH3OO
CH4 CH3OOH HCCO C2H2 CH2CO
C2H3 CH2CHO CH3CO CH3CO2 CH3C(O)OO
C2H4 CH3CHO CH3C(O)OOH C2H5 PC2H4OH
C2H5O C2H5OO C2H6 C2H5OOH AC3H5
C3H6 IC3H7 AR
END
TRANS ALL
NC7H16             2   415.500     6.094     0.000     0.000     1.000          
NC7H15             2   415.500     6.094     0.000     0.000     1.000          
NC7H15OO           2   506.300     6.238     0.000     0.000     1.000          
NC7H14OOH          2   506.300     6.238     0.000     0.000     1.000          
NHOOC7H14OO        2   596.100     6.376     0.000     0.000     1.000          
NC7KET             2   556.400     6.265     0.000     0.000     1.000          
NC5H9O             2   425.200     5.605     0.000     0.000     1.000          
NC5H11             2   378.400     5.507     0.000     0.000     1.000          
NC5H10             2   378.400     5.395     0.000     0.000     1.000          
NC5H9              2   378.400     5.395     0.000     0.000     1.000          
NC7H15O            2   488.500     6.156     0.000     0.000     1.000          
NC7H15OOH          2   506.300     6.238     0.000     0.000     1.000          
N2                 1    97.530     3.621     0.000     1.760     4.000          
O                  0    80.000     2.750     0.000     0.000     0.000          
O2                 1   107.400     3.458     0.000     1.600     3.800          
H                  0   145.000     2.050     0.000     0.000     0.000          
OH                 1    80.000     2.750     0.000     0.000     0.000          
HO2                2   107.400     3.458     0.000     0.000     1.000          
H2                 1    38.000     2.920     0.000     0.790   280.000          
H2O                2   572.400     2.605     1.844     0.000     4.000          
H2O2               2   107.400     3.458     0.000     0.000     3.800          
CO                 1    98.100     3.650     0.000     1.950     1.800          
CO2                1   244.000     3.763     0.000     2.650     2.100          
CH                 1    80.000     2.750     0.000     0.000     0.000          
HCO                2   498.000     3.590     0.000     0.000     0.000          
CH2                1   144.000     3.800     0.000     0.000     0.000          
CH2O               2   498.000     3.590     0.000     0.000     2.000          
CH3                1   144.000     3.800     0.000     0.000     0.000          
CH3O               2   417.000     3.690     1.700     0.000     2.000          
CH3OO              2   481.800     3.626     0.000     0.000     1.000          
CH4                2   141.400     3.746     0.000     2.600    13.000          
CH3OOH             2   481.800     3.626     0.000     0.000     1.000          
HCCO               2   150.000     2.500     0.000     0.000     1.000          
C2H2               1   265.300     3.721     0.000     0.000     2.500          
CH2CO              2   314.300     4.191     1.400     0.000     2.000          
C2H3               2   265.300     3.721     0.000     0.000     1.000          
CH2CHO             2   436.000     3.970     0.000     0.000     2.000          
CH3CO              2   436.000     3.970     0.000     0.000     2.000          
CH3CO2             2   436.000     3.970     0.000     0.000     2.000          
CH3C(O)OO          2   436.000     3.970     0.000     0.000     2.000          
C2H4               2   238.400     3.496     0.000     0.000     1.500          
CH3CHO             2   436.000     3.970     0.000     0.000     2.000          
CH3C(O)OOH         2   436.000     3.970     0.000     0.000     2.000          
C2H5               2   247.500     4.350     0.000     0.000     1.500          
PC2H4OH            2   470.600     4.410     0.000     0.000     1.500          
C2H5O              2   470.600     4.410     0.000     0.000     1.500          
C2H5OO             2   470.600     4.410     0.000     0.000     1.500          
C2H6               2   247.500     4.350     0.000     0.000     1.500          
C2H5OOH            2   470.600     4.410     0.000     0.000     1.500          
AC3H5              2   339.300     4.606     0.000     0.000     1.000          
C3H6               2   339.300     4.606     0.000     0.000     1.000          
IC3H7              2   339.300     4.758     0.000     0.000     1.000          
AR                 0   136.500     3.330     0.000     0.000     0.000          
END
REACTIONS
NC7H16=NC5H11+C2H5                         1.014E+25   -2.254   88858.0 !
NC7H16+O2=NC7H15+HO2                       2.704E+13    0.162   48236.7 !
NC7H16+OH=NC7H15+H2O                       5.738E+06    2.034    -797.9 !
NC7H16+HO2=NC7H15+H2O2                     9.496E+12    0.177   17684.1 !
NC7H16+H=NC7H15+H2                         2.240E+05    2.859    3844.8 !
NC7H16+CH3=NC7H15+CH4                      1.030E-03    4.704    3475.1 !
NC7H16+O=NC7H15+OH                         1.927E+05    2.765    2170.5 !
NC7H15+O2=NC7H15OO                         3.480E+14   -0.816    -530.0 !
NC7H15=NC5H10+C2H5                         1.000E+13    0.000   28000.0 !
NC7H15OO=NC7H14OOH                         5.100E+11    0.000   20900.0 !
NC7H14OOH+O2=NHOOC7H14OO                   3.480E+14   -0.816    -530.0 !
NC7H14OOH=>NC5H10+CH3CHO+OH                3.300E+11    0.000   14000.0 !
NHOOC7H14OO=>NC7KET+OH                     1.000E+11    0.000   20000.0 !
NC7KET=>CH3CHO+NC5H9O+OH                   3.000E+15    0.000   41600.0 !
NC5H9O=>IC3H7+CH2CO                        1.000E+11    0.000   28000.0 !
NC5H9O=>C3H6+CH2CHO                        1.000E+12    0.000   28000.0 !
NC5H11=>C2H4+IC3H7                         2.961E+19   -2.041   30921.8 !
NC5H10+OH=NC5H9+H2O                        2.000E+12    0.000    2100.0 !
NC5H10+H=NC5H9+H2                          5.000E+11    0.000     900.0 !
NC5H10+CH3=NC5H9+CH4                       7.000E+10    0.000    8500.0 !
NC5H10+O=>IC3H7+CH2CHO                     9.000E+13    0.000    1710.0 !
NC5H9+O2=>CH3CHO+C2H4+HCO                  3.000E+12    0.000   18800.0 !
NC7H15O=>CH2O+NC5H10+CH3                   1.000E+11    0.000   11900.0 !
NC7H15OOH=NC7H15O+OH                       3.000E+15    0.000   41600.0 !
O2+H=OH+O                                  9.756E+13    0.000   14844.6
H2+O=OH+H                                  5.120E+04    2.670    6278.7
OH+OH=O+H2O                                1.510E+09    1.140     100.4
H2O+H=H2+OH                                4.520E+08    1.600   18422.6
H2O2+OH=H2O+HO2                            7.830E+12    0.000    1331.3
H+OH+M=H2O+M                               1.659E+23   -2.000       0.0
              N2/0.133/ O2/0.133/ CO/0.25/ CO2/0.5/ H2O/0.85/ AR/0.38/  ! GRI3.0 BY Y.MORII
O2+H+M=HO2+M                               6.300E+18   -0.800       0.0
              N2/0.223/ O2/0.133/ CO/0.25/ CO2/0.5/ H2O/0/ AR/0/        ! GRI3.0 BY Y.MORII 
H+O2+AR<=>HO2+AR                           7.000E+17   -0.800       0.0 ! GRI3.0 BY Y.MORII
O2+H+H2O=HO2+H2O                           6.890E+15    0.000   -2086.5
O+HO2=O2+OH                                3.190E+13    0.000       0.0
H+HO2=OH+OH                                1.690E+14    0.000     874.8
H+HO2=H2+O2                                4.280E+13    0.000    1410.1
H+HO2=H2O+O                                3.010E+13    0.000    1720.8
OH+HO2=H2O+O2                              2.890E+13    0.000    -497.1
HO2+HO2=H2O2+O2                            4.220E+14    0.000   11983.7
              DUPLICATE
HO2+HO2=H2O2+O2                            1.320E+11    0.000   -1630.0
              DUPLICATE
OH+OH(+M)=H2O2(+M)                         7.230E+13   -0.370       0.0
              LOW / 5.530E+19   -0.760   0.0 /
              TROE / 1   1   1   1040 /
              N2/0.4/ O2/0.4/ CO/0.75/ CO2/1.5/ H2O/6.5/ AR/0.70/       ! GRI3.0 BY Y.MORII
H2O2+H=OH+H2O                              1.020E+13    0.000    3577.9
H2O2+H=HO2+H2                              1.690E+12    0.000    3754.8
H+O+M=OH+M                                 3.540E+19   -1.000       0.0
              N2/0.133/ O2/0.133/ CO/0.25/ CO2/0.5/ H2O/2.17/ AR/0.70/  ! GRI3.0 BY Y.MORII
O+O+M=O2+M                                 1.620E+14    0.000   -1787.8
              N2/0.133/ O2/0.133/ CO/0.25/ CO2/0.5/ H2O/2.17/ AR/0.83/  ! GRI3.0 BY Y.MORII
H+H+M=H2+M                                 5.610E+18   -1.000       0.0
              N2/0.133/ O2/0.133/ CO/0.25/ CO2/0.5/ H2O/2.17/ H2/0/ AR/0.63/ ! GRI3.0 BY Y.MORII
H2O2+O=OH+HO2                              6.620E+11    0.000    3974.7
CH3+H(+M)=CH4(+M)                          2.138E+15   -0.400       0.0
              LOW / 3.310E+30   -4.000   2108.0 /
              TROE / 0   1E-15   1E-15   40 /
              H2/2/ H2O/5/ CO/2/ CO2/3/ AR/0.70/                        ! GRI3.0 BY Y.MORII
CH4+H=CH3+H2                               1.727E+04   3.000    8224.0
                                    REV /  6.610E+02   3.000    7744.0 /
CH4+OH=CH3+H2O                             1.930E+05   2.400    2106.0
                                    REV /  4.820E+02   2.900   14860.0 /
CH4+O=CH3+OH                               2.130E+06   2.210    6480.0
                                    REV /  3.557E+04   2.210    3920.0 /
HCO+OH=CO+H2O                              3.011E+13   0.000       0.0 ! ARAMCOMECH2.0
CO+OH=CO2+H                                1.400E+05   1.950   -1347.0
                                    REV /  1.568E+07   1.950   20990.0 /
HCO+M=H+CO+M                               1.860E+17  -1.000   17000.0
                                    REV /  6.467E+13   0.000    -442.0 /
CH3+HO2=CH3O+OH                            1.100E+13   0.000       0.0
                                    REV /  4.780E+14  -0.350   24550.0 /
CO+HO2=CO2+OH                              3.010E+13   0.000   23000.0
                                    REV /  6.435E+15  -0.330   84610.0 /
CO+O(+M)=CO2(+M)                           1.800E+10   0.000    2384.0
              LOW / 1.350E+24   -2.788   4191.0 /
              H2/2.5/ H2O/12/ CO/1.9/ CO2/3.8/ AR/0.50/                   ! GRI3.0 BY Y.MORII
CO+O2=CO2+O                                1.050E+12   0.      42540.0   ! CURRAN 2010
                                    REV /  8.035E+15  -0.8     51230.0 / ! CURRAN 2010
HCO+H=CO+H2                                7.340E+13   0.000       0.0
                                    REV /  4.813E+14   0.000   90000.0 /
HCO+O=CO+OH                                3.020E+13   0.000       0.0
                                    REV /  8.697E+13   0.000   87900.0 /
CH2O+M=HCO+H+M                             6.283E+29  -3.570   93200.0
                                    REV /  2.660E+24  -2.570     427.0 /
CH2O+OH=HCO+H2O                            3.430E+09   1.180    -447.0
                                    REV /  1.186E+09   1.180   29380.0 /
CH2O+H=HCO+H2                              9.334E+08   1.500    2976.0
                                    REV /  7.453E+07   1.500   17650.0 /
CH2O+O=HCO+OH                              4.160E+11   0.570    2762.0
                                    REV /  1.459E+10   0.570   15340.0 /
CH3+OH=CH2O+H2                             2.250E+13   0.000    4300.0
                                    REV /  6.756E+14   0.000   76030.0 /
CH3+O=CH2O+H                               8.000E+13   0.000       0.0
                                    REV /  1.055E+15   0.000   69630.0 /
CH3+O2=CH3O+O                              1.995E+18  -1.570   29210.0
                                    REV /  3.585E+18  -1.590   -1631.0 /
CH2O+CH3=HCO+CH4                           3.636E-06   5.420     998.0
                                    REV /  7.584E-06   5.420   16150.0 /
HCO+CH3=CH4+CO                             2.650E+13   0.000       0.0 ! ARAMCOMECH2.0
HCO+HCO=CH2O+CO                            1.800E+13   0.000       0.0 ! ARAMCOMECH2.0
CH3O(+M)=CH2O+H(+M)                        5.450E+13   0.000   13500.0
              LOW / 2.344E+25   -2.700   30600.0 /
HCO+HO2=CH2O+O2                            2.974E+10   0.330   -3861.0
                                    REV /  2.050E+13   0.000   38950.0 /
CH3O+O2=CH2O+HO2                           5.500E+10   0.000    2424.0
                                    REV /  1.318E+09   0.350   31390.0 /
CH3+HO2=CH4+O2                             3.600E+12   0.000       0.0
                                    REV /  5.177E+15  -0.330   57960.0 /
HCO+O2=CO+HO2                              7.580E+12   0.000     410.0
                                    REV /  9.029E+11   0.330   32930.0 /
CH4+HO2=CH3+H2O2                           3.420E+11   0.000   19290.0
                                    REV /  3.365E+11  -0.330    2502.0 /
CH2O+HO2=HCO+H2O2                          5.820E-03   4.530    6557.0
                                    REV /  1.194E-02   4.200    4921.0 /
CH2+O2=CO+H2O                              7.280E+19  -2.540    1809.0
                                    REV /  8.508E+20  -2.540  179800.0 /
CH2+O2=HCO+OH                              1.290E+20  -3.300     284.0
                                    REV /  5.310E+19  -3.300   73170.0 /
CH2+O=>CO+H+H                              5.000E+13   0.000       0.0
CH2+H=CH+H2                                1.000E+18  -1.560       0.0
                                    REV /  7.026E+17  -1.560    2990.0 /
CH2+OH=CH+H2O                              1.130E+07   2.000    3000.0
                                    REV /  3.437E+07   2.000   21150.0 /
CH2+O2=>CO2+H+H                            3.290E+21  -3.300    2868.0
CH+O2=HCO+O                                3.300E+13   0.000       0.0
                                    REV /  4.402E+13   0.000   71990.0 /
CH2+O2=CH2O+O                              3.290E+21  -3.300    2868.0
                                    REV /  3.862E+22  -3.300   63180.0 /
CH2+O2=CO2+H2                              1.010E+21  -3.300    1508.0
                                    REV /  3.054E+23  -3.300  186700.0 /
CH2O+M=CO+H2+M                             1.826E+32  -4.420   87120.0
                                    REV /  5.070E+27  -3.420   84350.0 /
HCO+O=CO2+H                                3.000E+13   0.000       0.0
                                    REV /  9.677E+15   0.000  110200.0 /
CH3+M=CH2+H+M                              1.968E+16   0.000   92520.0
                                    REV /  2.107E+11   1.000  -19620.0 /
CH3+H=CH2+H2                               9.000E+13   0.000   15100.0
                                    REV /  1.818E+13   0.000   10400.0 /
CH3+OH=CH2+H2O                             3.000E+06   2.000    2500.0
                                    REV /  2.623E+06   2.000   12960.0 /
CH3OO+M=CH3+O2+M                           4.343E+27  -3.420   30470.0
                                    REV /  5.440E+25  -3.300       0.0 /
CH3OOH=CH3O+OH                             6.310E+14   0.000   42300.0
                                    REV /  1.166E+11   0.600   -1771.0 /
CH3OO+CH2O=CH3OOH+HCO                      1.990E+12   0.000   11670.0
                                    REV /  8.504E+12  -0.500    7009.0 /
CH4+CH3OO=CH3+CH3OOH                       1.810E+11   0.000   18480.0
                                    REV /  3.708E+11  -0.500   -1327.0 /
CH3OO+CH3=CH3O+CH3O                        7.000E+12   0.000   -1000.0
                                    REV /  2.971E+16  -0.930   28310.0 /
CH3OO+HO2=CH3OOH+O2                        1.750E+10   0.000   -3275.0
                                    REV /  5.156E+13  -0.830   34880.0 /
CH3OO+CH3OO=>O2+CH3O+CH3O                  1.400E+16  -1.610    1860.0
CH3+O2=CH2O+OH                             7.470E+11   0.000   14250.0
                                    REV /  7.778E+11   0.000   67770.0 /
C2H6+CH3=C2H5+CH4                          1.510E-07   6.000    6047.0
                                    REV /  9.649E-10   6.560   10220.0 /
C2H4+O=CH3+HCO                             1.020E+07   1.880     179.0
                                    REV /  2.851E+08   1.050   31770.0 /
H+C2H4(+M)=C2H5(+M)                        1.081E+12   0.450    1822.0
              LOW / 1.112E+34   -5.000   4448.0 /
              TROE / 1   1E-15   95   200 /
              H2/2/ H2O/5/ CO/2/ CO2/3/  AR/0.70/                      ! GRI3.0 BY Y.MORII
C2H6+H=C2H5+H2                             5.540E+02   3.500    5167.0
                                    REV /  1.355E-01   4.060    8857.0 /
C2H5+O2=C2H4+HO2                           1.220E+30  -5.760   10100.0
                                    REV /  1.259E+30  -5.630   22310.0 /
C2H6+OH=C2H5+H2O                           5.125E+06   2.060     855.0
                                    REV /  1.010E+07   2.060   22980.0 /
C2H6+O=C2H5+OH                             1.130E+14   0.000    7850.0
                                    REV /  2.080E+13   0.000   12720.0 /
CH3+CH3(+M)<=>C2H6(+M)                     2.277E+15  -0.690     174.9 ! ARAMCOMECH2.0
              LOW / 8.054E+31   -3.750E+00   9.816E+02 /
              TROE / 0.000E+00   5.700E+02   1.000E+30   1.000E+30 /
              H2O/5.0/ CO/2.0/ CO2/3.0/ AR/ .70/                      ! GRI3.0 BY Y.MORII
C2H4(+M)=C2H2+H2(+M)                       1.800E+13   0.000   76000.0
              LOW / 1.500E+15   0.000   55443.0 /
C2H3+H(+M)=C2H4(+M)                        6.100E+12   0.270     280.0
              LOW / 9.800E+29   -3.860   3320.0 /
              TROE / 0.782   208   2663   6095 /
C2H2+H(+M)=C2H3(+M)                        3.110E+11   0.580    2589.0
              LOW / 2.254E+40   -7.269   6577.0 /
              TROE / 1   1E-15   675   1E+15 /
              H2/2/ H2O/5/ CO/2/ CO2/3/ AR/ .70/                      ! GRI3.0 BY Y.MORII
C2H4+H=C2H3+H2                             8.420E-03   4.620    2583.0
                                    REV /  5.723E-01   3.790    3233.0 /
C2H4+OH=C2H3+H2O                           1.800E+06   2.000    2500.    ! CURRAN2010
C2H2+O2=HCCO+OH                            2.000E+08   1.500   30100.0
                                    REV /  2.232E+05   1.500   25400.0 /
C2H2+O=CH2+CO                              6.120E+06   2.000    1900.0
                                    REV /  1.152E+06   2.000   52570.0 /
C2H2+O=HCCO+H                              1.430E+07   2.000    1900.0
                                    REV /  2.021E+05   2.000   13310.0 /
C2H2+OH=CH2CO+H                            2.190E-04   4.500   -1000.0
                                    REV /  2.161E-03   4.500   19670.0 /
CH2CO+H=CH3+CO                             1.100E+13   0.000    3400.0
                                    REV /  2.400E+12   0.000   40200.0 /
CH2CO+O=CH2+CO2                            1.750E+12   0.000    1350.0
                                    REV /  3.739E+12   0.000   53690.0 /
CH2CO(+M)=CH2+CO(+M)                       3.000E+14   0.000   70980.0
                                    LOW /  3.600E+15   0.000   59270.0 /
CH2CO+O=HCCO+OH                            1.000E+13   0.000    8000.0
                                    REV /  1.432E+10   0.000   -1255.0 /
CH2CO+OH=HCCO+H2O                          1.000E+13   0.000    2000.0
                                    REV /  1.412E+11   0.000    9995.0 /
CH2CO+H=HCCO+H2                            2.000E+14   0.000    8000.0
                                    REV /  6.522E+11   0.000     840.0 /
HCCO+OH=>H2+CO+CO                          1.000E+14   0.000       0.0 ! ARAMCOMECH2.0
HCCO+O=>H+CO+CO                            8.000E+13   0.000       0.0 ! ARAMCOMECH2.0
C2H6+O2=C2H5+HO2                           4.000E+13   0.000   50900.0
                                    REV /  3.000E+11   0.000       0.0 /
C2H6+HO2=C2H5+H2O2                         1.700E+13   0.000   20460.0
                                    REV /  1.069E+11   0.240    7842.0 /
CH3+C2H3=CH4+C2H2                          3.920E+11   0.000       0.0
                                    REV /  2.962E+13   0.000   66050.0 /
CH3+C2H5=CH4+C2H4                          1.950E+13  -0.500       0.0
                                    REV /  2.895E+16  -0.700   70170.0 /
C2H3+H=C2H2+H2                             1.700E+14   0.000       0.0 ! ARAMCOMECH2.0
CH3+CH3=H+C2H5                             4.740E+12   0.105   10664.0 ! ARAMCOMECH2.0
              PLOG / 1.000E-02   4.740E+12   0.105   10664.3 /
              PLOG / 1.000E-01   2.570E+13  -0.096   11406.1 /
              PLOG / 1.000E+00   3.100E+14  -0.362   13372.5 /
              PLOG / 1.000E+01   2.150E+10   0.885   13532.5 /
              PLOG / 1.000E+02   1.032E+02   3.230   11236.1 /
C2H3+O2=>CH2O+H+CO                         2.271E+14  -0.7498   3155.
              PLOG / 0.1   5.582E+16  -1.5524   1014. / ! GOLDSMITH2015
              PLOG / 1.    1.111E+17  -1.6331   1227. /
              PLOG / 10.   1.109E+18  -1.8801   2771. /
              PLOG / 100.  2.271E+14  -0.7498   3155. /
C2H3+O2=CH2O+HCO                           9.732E+13  -0.7498   3155.
              PLOG /    0.1 2.392E+16  -1.5524   1014.  / ! GOLDSMITH2015
              PLOG /    1.  4.761E+16  -1.6331   1227.  /
              PLOG /   10.  4.754E+17  -1.8801   2771.  /
              PLOG /  100.  9.732E+13  -0.7498   3155.  /
C2H6=C2H5+H                                2.783E+21  -1.560  103800.0
                                    REV /  3.610E+13   0.000       0.0 /
C2H4+CH3=C2H3+CH4                          6.620E+00   3.700    9500.0
                                    REV /  1.440E+00   4.020    5472.0 /
CH3CO(+M)=CH3+CO(+M)                       3.000E+12   0.000   16720.0
                                    LOW /  1.200E+15   0.000   12518.0 /
CH3CHO=CH3+HCO                             2.614E+15   0.150   80550.0
                                    REV /  2.000E+13   0.000       0.0 /
CH3CHO+O2=CH3CO+HO2                        3.010E+13   0.000   39150.0
                                    REV /  8.552E+10   0.320   -1940.0 /
CH3CHO+OH=CH3CO+H2O                        2.340E+10   0.730    1110.0
CH3CHO+OH=CH2CHO+H2O                       1.600E+13   0.000    2000.0
CH3CHO+H=CH3CO+H2                          1.340E+13   0.000    3300.0
                                    REV /  2.096E+12  -0.010   19690.0 /
CH3CHO+O=CH3CO+OH                          5.940E+12   0.000    1868.0
                                    REV /  4.080E+11  -0.010   16170.0 /
CH3CHO+HO2=CH3CO+H2O2                      3.520E-01   4.075    5580.0 ! TST AM2011
                                    REV /  1.050E-01   3.978    3230.0 /
CH3CHO+CH3=CH3CO+CH4                       2.608E+06   1.780    5911.0
                                    REV /  1.066E+07   1.770   22790.0 /
C2H4+O2=C2H3+HO2                           4.000E+13   0.000   58200.0
                                    REV /  4.939E+13  -0.500    1368.0 /
CH+CH4=C2H4+H                              6.000E+13   0.000       0.0
                                    REV /  3.573E+14   0.000   55480.0 /
CH3CO+H=CH2CO+H2                           2.000E+13   0.000       0.0
                                    REV /  7.270E+09   0.000   83040.0 /
CH3CO+O=CH2CO+OH                           2.000E+13   0.000       0.0
                                    REV /  7.270E+09   0.000   83040.0 /
CH3CO+CH3=CH2CO+CH4                        5.000E+13   0.000       0.0
                                    REV /  7.270E+09   0.000   83040.0 /
C2H4+O=CH2CHO+H                            3.390E+06   1.880     179.0
                                    REV /  9.481E+06   1.790   16050.0 /
C2H5+O=>CH3+CH2O                           5.000E+13   0.000       0.0
C2H5O=CH3+CH2O                             1.320E+20  -2.02    20750.
C2H5O+O2=CH3CHO+HO2                        4.280E+10   0.000    1097.0
                                    REV /  3.872E+08   0.440   31880.0 /
C2H3+O2=CH2CHO+O                           1.022E+11   0.4997   3621.
                PLOG /    0.1 1.584E+11   0.3279    360.  / ! GOLDSMITH2015
                PLOG /    1.  5.196E+11   0.1858    809.  /
                PLOG /   10.  1.020E+13  -0.1482   2483.  /
                PLOG /  100.  1.022E+11   0.4997   3621.  /
C2H5+O2(+M)=C2H5OO(+M)                     6.890E+16  -1.627     200.0
                LOW /  3.106E+36  -6.508     595.3 /
                TROE / 0.3200 50.0  50000.0 10000. /
C2H5OOH=C2H5O+OH              6.310E+14   0.000   42300.0
                                    REV /  8.314E+06   1.700   -3207.0 /
C2H5OO+CH2O=C2H5OOH+HCO                    1.990E+12   0.000   11670.0
                                    REV /  8.422E+12  -0.510    6605.0 /
C2H4+CH3OO=C2H3+CH3OOH                     1.130E+13   0.000   30430.0
                                    REV /  3.000E+12   0.000   11500.0 /
CH4+C2H5OO=CH3+C2H5OOH                     1.810E+11   0.000   18480.0
                                    REV /  3.673E+11  -0.510   -1731.0 /
C2H5+HO2=C2H5O+OH                          3.200E+13   0.000       0.0
                                    REV /  3.075E+15  -0.320   27490.0 /
CH3OO+C2H5=CH3O+C2H5O                      7.000E+12   0.000   -1000.0
                                    REV /  6.569E+16  -0.900   31260.0 /
C2H5OO+HO2=C2H5OOH+O2                      1.750E+10   0.000   -3275.0
                                    REV /  5.106E+13  -0.830   34480.0 /
C2H6+CH3OO=C2H5+CH3OOH                     1.700E+13   0.000   20460.0
                                    REV /  7.500E+11   0.000    1280.0 /
C2H6+C2H5OO=C2H5+C2H5OOH                   1.700E+13   0.000   20460.0
                                    REV /  7.500E+11   0.000    1280.0 /
CH3C(O)OO=CH3CO+O2                         4.625E+19  -1.900   39560.0
                                    REV /  1.200E+11   0.000   -1100.0 /
CH3CO2+M=CH3+CO2+M                         4.400E+15   0.000   10500.0
                                    REV /  9.648E+12   0.200   21040.0 /
CH3C(O)OOH=CH3CO2+OH                       5.010E+14   0.000   40150.0
                                    REV /  1.738E+08   1.570    1305.0 /
CH3C(O)OO+HO2=CH3C(O)OOH+O2                1.750E+10   0.000   -3275.0
                                    REV /  4.093E+12  -0.330   39040.0 /
C2H5O=CH3CHO+H                             5.430E+15  -0.69    22230.
H2O2+CH3C(O)OO=HO2+CH3C(O)OOH              2.410E+12   0.000    9936.0
                                    REV /  3.984E+11   0.320   11070.0 /
CH4+CH3C(O)OO=CH3+CH3C(O)OOH               1.810E+11   0.000   18480.0
                                    REV /  2.944E+10   0.000    2831.0 /
C2H6+CH3C(O)OO=C2H5+CH3C(O)OOH             1.700E+13   0.000   20460.0
                                    REV /  1.767E+10   0.560    8980.0 /
CH2O+CH3C(O)OO=HCO+CH3C(O)OOH              1.990E+12   0.000   11670.0
                                    REV /  6.752E+11   0.000   11170.0 /
CH3OO+CH3CHO=CH3OOH+CH3CO                  3.010E+12   0.000   11930.0
                                    REV /  2.519E+13  -0.510    8991.0 /
CH3CHO+CH3C(O)OO=CH3CO+CH3C(O)OOH          3.010E+12   0.000   11930.0
                                    REV /  2.000E+12  -0.020   13150.0 /
C2H5OO=C2H4+HO2                            3.370E+55 -13.420   44670.0
                                    REV /  1.392E+49 -12.100   21620.0 /
CH2CHO=CH2CO+H                             3.094E+15  -0.260   50820.0
                                    REV /  5.000E+13   0.000   12300.0 /
CH2CHO+O2=>CH2O+CO+OH                      6.400E+10   0.       9000.0
CH2CHO+O2=>CH2CO+HO2                       1.024E+12   0.       9000.0
HCCO+O2=>OH+CO+CO                          1.910E+11  -0.020    1020.0 ! ARAMCOMECH2.0
HCCO+O2=>CO2+CO+H                          4.780E+12  -0.142    1150.0 ! ARAMCOMECH2.0
CH+CO+M<=>HCCO+M                           7.570E+22  -1.900       0.0 ! ARAMCOMECH2.0
CH+HCCO<=>CO+C2H2                          5.000E+13   0.000       0.0 ! ARAMCOMECH2.0
C2H4+H2=CH3+CH3                            3.767E+12   0.830   84710.0
                                    REV /  1.000E+14   0.000   32000.0 /
PC2H4OH=C2H4+OH                            1.293E+12  -0.370   26850.0
                                    REV /  9.930E+11   0.000    -960.0 /
IC3H7+HO2=>CH3CHO+CH3+OH                   7.000E+12   0.000   -1000.0 !IC3H7O=CH3CHO+CH3
IC3H7+CH3OO=>CH3CHO+CH3+CH3O               7.000E+12   0.000   -1000.0 !IC3H7O=CH3CHO+CH3
C3H6+H=IC3H7                               2.000E+13   0.000    1200.0 !REV
C3H6+H<=>AC3H5+H2                          3.644E+05   2.455    4361.2 !
C3H6+O=>C2H5+HCO                           7.300E+12   0.000    1710.0
C3H6+OH=AC3H5+H2O                          3.120E+06   2.000    -298.0 !
C3H6+HO2=AC3H5+H2O2                        1.500E+11   0.000   14190.0   ! KUCRSWPI
                                    REV /  1.536E+12  -0.362   13842.6 /
C3H6+CH3=AC3H5+CH4                         1.400E+11   0.000    8800.0
C3H6+O2=AC3H5+HO2                          4.000E+13   0.000   50900.0   ! KUCRSWPI
                                    REV /  1.835E+13  -0.217   11454.7 /
C3H6=C2H3+CH3                              5.986E+30  -3.9888 107791.    ! HPL
                 PLOG /    0.1 3.075E+69 -15.9470 123807.  / ! RRKM2014
                 PLOG /    1.  1.898E+71 -16.0387 128780.  /
                 PLOG /   10.  1.863E+69 -15.1393 131253.  /
                 PLOG /  100.  7.007E+61 -12.8256 128945.  /
C3H6=AC3H5+H                               7.701E+19  -1.2276  90816.    ! HPL
                 PLOG /    0.1 3.235E+67 -15.3226 115930.  / ! RRKM2014
                 PLOG /    1.  2.127E+66 -14.7050 118634.  /