THERMO ALL
   300.000  1000.000  5000.000
!1
C6H5CH3           T 9/81C   7H   8    0    0G   300.000  5000.000 1000.000     1
 0.13957725E+02 0.24616607E-01-0.83795358E-05 0.12537165E-08-0.67675520E-13    2
-0.10295066E+04-0.52245728E+02-0.25368824E+01 0.52898869E-01 0.14038515E-05    3
-0.40762323E-07 0.20377519E-10 0.44778477E+04 0.37415115E+02                   4
!2
C6H5CH2    5/11/93 THERMC   7H   7    0    0G   300.000  5000.000 1380.000     1
 1.74066429e+01 1.94934914e-02-6.89552346e-06 1.09498206e-09-6.45370306e-14    2
 1.52488939e+04-7.16678643e+01-3.13104309e+00 6.45512922e-02-4.39082794e-05    3
 1.46756825e-08-1.95214937e-12 2.26869723e+04 3.96945254e+01                   4
!3
HOC6H4CH3 AVG CRESOL    C   7H   8O   1    0G   300.000  5000.000 1400.000     1
 1.97311724E+01 2.12245074E-02-7.27602659E-06 1.13158989E-09-6.57395287E-14    2
-2.50451776E+04-8.18783394E+01-4.17663565E+00 8.29479164E-02-6.92618926E-05    3
 2.97047387E-08-5.12027914E-12-1.73715284E+04 4.43681107E+01                   4
!4
OC6H4CH3  AVG CRESOL    C   7H   7O   1    0G   300.000  5000.000 1398.000     1
 2.00333477E+01 1.83142467E-02-6.17265091E-06 9.50353551E-10-5.48634044E-14    2
-7.76864165E+03-8.60606102E+01-3.82920147E+00 7.73376217E-02-6.15929083E-05    3
 2.43728641E-08-3.80779615E-12 2.89377185E+01 4.06647799E+01                   4
!5
C6H4CH3     RANZI       C   7H   7          G    300.00   5000.00 1000.00      1
 .989521100E+01 .281997140E-01-.985390310E-05 .114532240E-08 .000000000E+00    2
 .307512908E+05-.257557742E+02-.298827000E+01 .621039310E-01-.390118950E-04    3
 .928257830E-08 .000000000E+00 .343676800E+05 .412025200E+02                   4
!6         PITZ
C6H5CH2OO  3/ 4/94 THERMC   7H   7O   2    0G   300.000  5000.000 1389.000     1
 2.18946260e+01 2.02701494e-02-7.14525361e-06 1.13208570e-09-6.66220534e-14    2
 3.93272947e+03-8.95685129e+01-3.77863659e+00 8.29484718e-02-6.64288143e-05    3
 2.69504875e-08-4.41844689e-12 1.25603231e+04 4.73269747e+01                   4
!7         PITZ
C6H5CH2OOH 3/ 4/94 THERMC   7H   8O   2    0G   300.000  5000.000 1390.000     1
 2.21951256e+01 2.19901041e-02-7.70452728e-06 1.21574282e-09-7.13427270e-14    2
-1.43966742e+04-9.07483698e+01-3.39515159e+00 8.45306884e-02-6.70634097e-05    3
 2.72113250e-08-4.48289693e-12-5.78730853e+03 4.57078979e+01                   4
!8
C6H5CH2O   4/14/94 THERMC   7H   7O   1    0G   300.000  5000.000 1392.000     1
 1.78843033e+01 2.09011735e-02-7.21832713e-06 1.12839851e-09-6.57955260e-14    2
 4.93182818e+03-7.01304667e+01-4.77736690e+00 7.51049308e-02-5.68532831e-05    3
 2.18290029e-08-3.38134298e-12 1.26234438e+04 5.10429366e+01                   4
!9
C6H5CHO    5/16/90 THERMC   7H   6O   1    0G   300.000  5000.000 1386.000     1
 1.74024893E+01 1.89508317E-02-6.58694307E-06 1.03413046E-09-6.04793155E-14    2
-1.31418522E+04-6.83371315E+01-2.37082285E+00 6.28843128E-02-4.26460754E-05    3
 1.39416083E-08-1.74474949E-12-6.11656186E+03 3.85478773E+01                   4
!10
BIBENZYL                C  14H  14    0    0G   300.000  5000.000 1392.000     1
 3.48131330E+01 3.78396057E-02-1.27934440E-05 1.97366490E-09-1.14091685E-13    2
-3.11362732E+02-1.63384186E+02-1.05318902E+01 1.48504587E-01-1.15713218E-04    3
 4.52836955E-08-7.06388895E-12 1.47378885E+04 7.80962493E+01                   4
!11
C6H5CO    THERM         C   7H   5O   1    0G   300.000  5000.000 1392.000     1
 1.75116258E+01 1.62650511E-02-5.65051892E-06 8.86922680E-10-5.18657990E-14    2
 4.67641545E+03-6.70531966E+01-1.56729686E+00 5.99817511E-02-4.29153585E-05    3
 1.48666854E-08-1.98938453E-12 1.12873830E+04 3.55490009E+01                   4
!12
C6H5CHCH2               C   8H   80   00   0G   300.00   5000.00  1000.00      1
 0.14571320E+02 0.28601890E-01-0.10945920E-04 0.19866680E-08-0.13651030E-12    2
 0.10602530E+05-0.53346050E+02-0.47260910E+01 0.81145100E-01-0.58700960E-04    3
 0.14330870E-07 0.20285270E-11 0.16027630E+05 0.46634070E+02                   4
!13
C6H5C2H4                C   8H   90   00   0G   300.0    3000.0   1000.0       1
 0.17812740E+02 0.24252330E-01-0.73258030E-05 0.10781160E-08-0.63032930E-13    2
 0.19489380E+05-0.69123150E+02-0.54440620E+01 0.90239870E-01-0.78481590E-04    3
 0.37195140E-07-0.77518990E-11 0.25979520E+05 0.51002700E+02                   4
!14
C6H5C2H5                C   8H  10    0    0G   300.000  5000.000 1397.000     1
 2.02816724E+01 2.59464082E-02-8.92667064E-06 1.39161163E-09-8.09786280E-14    2
-6.88695837E+03-8.65892579E+01-5.93600077E+00 8.94618416E-02-6.81230510E-05    3
 2.66103734E-08-4.21398102E-12 1.94317497E+03 5.33309542E+01                   4
!15
C6H5CH2OH  3/8/90       C   7H   8O   1    0G   300.000  5000.000 1396.000     1
 1.81575155E+01 2.26620146E-02-7.79454113E-06 1.21491074E-09-7.06883434E-14    2
-2.13319736E+04-7.19512787E+01-3.72475901E+00 7.42375044E-02-5.41481788E-05    3
 2.01178934E-08-3.02199053E-12-1.38224993E+04 4.53342817E+01                   4
!16
! Species: CO               CAS Number: 630-08-0
! Name:    Carbon Monoxide
! Source:  SNLL fit to 1986 JANAF tables, 12/12/86
! H0(298K) =      -26.4200 (Kcal/mole),  S0(298K) =       47.2100 (cal/mole-K)
CO                121286C   1O   1          G   300.000  5000.000 1000.00      1
 3.02507800e+00 1.44268900e-03-5.63082800e-07 1.01858100e-10-6.91095200e-15    2
-1.42683500e+04 6.10821800e+00 3.26245200e+00 1.51194100e-03-3.88175500e-06    3
 5.58194400e-09-2.47495100e-12-1.43105400e+04 4.84889700e+00                   4
!17
! Species: CO2              CAS Number: 124-38-9
! Name:    Carbon Dioxide
! Source:  SNLL fit to 1986 JANAF tables, 12/12/86
! H0(298K) =      -94.0500 (Kcal/mole),  S0(298K) =       51.0700 (cal/mole-K)
CO2               121286C   1O   2          G   300.000  5000.000 1000.00      1
 4.45362300e+00 3.14016900e-03-1.27841100e-06 2.39399700e-10-1.66903300e-14    2
-4.89669600e+04-9.55395900e-01 2.27572500e+00 9.92207200e-03-1.04091100e-05    3
 6.86668700e-09-2.11728000e-12-4.83731400e+04 1.01884900e+01                   4
!18
! Species: C6H6             CAS Number: 71-43-2
! Name:    Benzene
! Source:  Burcat fit (LSU calculations), 2/03/87
! H0(298K) =       19.8000 (Kcal/mole),  S0(298K) =       64.4000 (cal/mole-K)
C6H6               20387C   6H   6          G   300.000  5000.000 1000.00      1
 1.29107400e+01 1.72329700e-02-5.02421100e-06 5.89349700e-10-1.94752100e-14    2
 3.66451200e+03-5.00269900e+01-3.13801200e+00 4.72310300e-02-2.96220800e-06    3
-3.26281900e-08 1.71869200e-11 8.89003100e+03 3.65757300e+01                   4
! C6 species Alz 2000
!C6H6              SAND87C   6H   6          G  0300.00   5000.00  1000.00      1
! 0.01291074E+03 0.01723297E+00-0.05024211E-04 0.05893497E-08-0.01947521E-12    2
! 0.03664512E+05-0.05002699E+03-0.03138012E+02 0.04723103E+00-0.02962208E-04    3
!-0.03262819E-06 0.01718692E-09 0.08890031E+05 0.03657573E+03                   4
!19
! Species: C6H5             CAS Number: 2396-01-2
! Name:    Phenyl Radical
! Source:  SNLL fit to BAC-MP4 data, 8/24/89
! H0(298K) =       79.4200 (Kcal/mole),  S0(298K) =       69.8100 (cal/mole-K)
C6H5               82489C   6H   5          G   300.000  4000.000 1000.00      1
 1.57758900e+01 9.65110900e-03-9.42941600e-07-5.46911100e-10 1.02652200e-13    2
 3.30269800e+04-6.17628000e+01 1.14355700e-01 3.62732500e-02 1.15828600e-06    3
-2.19696500e-08 8.46355600e-12 3.83605400e+04 2.38011700e+01                   4
! C6H5; Hf(298)=80.73 (Hippler et al, 26SIC); S, Cp Sandia Database 82489
! Alz 2000
!C6H5              PG9705C   6H   5          G  0300.00   4000.00  1000.00      1
! 0.01577589E+03 0.09651109E-01-0.09429416E-05-0.05469111E-08 0.01026522E-11    2
! 0.03368123E+06-0.06176280E+03 0.01143557E+01 0.03627325E+00 0.01158286E-04    3
!-0.02196965E-06 0.08463556E-10 0.03901479E+06 0.02380117E+03                   4
!20
! Species: C6H4             CAS Number: 462-80-6
! Name:    Ortho-benzyne
! Source:  SNL fit to BAC-MP4 data, 11/12/93
! H0(298K) =       99.6600 (Kcal/mole),  S0(298K) =       68.2500 (cal/mole-K)
C6H4              111293H   4C   6          G   300.000  4000.000 1000.00      1
 1.40162500e+01 8.24276900e-03-8.09966400e-07-4.65413200e-10 8.74812200e-14    2
 4.41039600e+04-5.13937600e+01 1.52002400e+00 2.87661100e-02 1.41772500e-06    3
-1.65058900e-08 5.87315700e-12 4.84489400e+04 1.71903400e+01                   4
!21
! Species: C6H5O            CAS Number: 2122-46-5
! Name:    Phenoxy Radical
! Source:  SNLL fit to BAC-MP4 data, 8/24/89
! H0(298K) =       10.3400 (Kcal/mole),  S0(298K) =       74.8600 (cal/mole-K)
C6H5O              82489C   6H   5O   1     G   300.000  4000.000 1000.00      1
 1.82263900e+01 1.00398500e-02-9.91566800e-07-5.67280400e-10 1.06837200e-13    2
-2.62084600e+03-7.36139100e+01 1.10749700e+00 3.95694600e-02 8.49729500e-07    3
-2.43631100e-08 9.65066000e-12 3.15967200e+03 1.97349600e+01                   4
! Alz 2000
!C6H5O             SAND89C   6H   5O   1     G  0300.00   4000.00  1000.00      1
! 0.01822639E+03 0.01003985E+00-0.09915668E-05-0.05672804E-08 0.01068372E-11    2
!-0.02620846E+05-0.07361391E+03 0.01107497E+02 0.03956946E+00 0.08497295E-05    3
!-0.02436311E-06 0.09650660E-10 0.03159672E+05 0.01973496E+03                   4
!22
! Species: C6H5OH           CAS Number: 108-95-2
! Name:    Phenol
! Source:  SNLL fit to BAC-MP4 data, 8/24/89
! H0(298K) =      -25.1300 (Kcal/mole),  S0(298K) =       76.9600 (cal/mole-K)
C6H5OH             82489C   6H   6O   1     G   300.000  4000.000 1000.00      1
 1.82163300e+01 1.14242700e-02-1.09668400e-06-6.42744200e-10 1.19889300e-13    2
-2.05366400e+04-7.30423400e+01 1.39145600e+00 3.93195800e-02 1.77709600e-06    3
-2.27767300e-08 8.30965900e-12-1.47218100e+04 1.91781300e+01                   4
! Alz 2000
!C6H5OH            SAND89C   6H   6O   1     G  0300.00   4000.00  1000.00      1
! 0.01821633E+03 0.01142427E+00-0.01096684E-04-0.06427442E-08 0.01198893E-11    2
!-0.02053664E+06-0.07304234E+03 0.01391456E+02 0.03931958E+00 0.01777096E-04    3
!-0.02277673E-06 0.08309659E-10-0.01472181E+06 0.01917813E+03                   4
!23 Alz 2000
OC6H4O            BURC97C   6H   4O   2     G  0200.00   6000.00  1000.00      1
 1.43886617E+01 1.81624210E-02-6.69934678E-06 1.10097880E-09-6.67372266E-14    2
-2.12444054E+04-5.02572901E+01 3.79867882E+00 2.51676569E-02 3.79846917E-05    3
-7.06777516E-08 3.06126573E-11-1.72429606E+04 9.80455363E+00-1.47813882E-04    4
!24
oOC6H4O           S&PPG C   6H   4O   2     G  0200.00   6000.00  1000.00      1
 1.43886617E+01 1.81624210E-02-6.69934678E-06 1.10097880E-09-6.67372266E-14    2
-1.90451100E+04-5.02572901E+01 3.79867882E+00 2.51676569E-02 3.79846917E-05    3
-7.06777516E-08 3.06126573E-11-1.50436650E+04 9.80455363E+00-1.47813882E-04    4
!25
OC6H3O    BOZELLI       C   6H   3O   2    0G   300.000  5000.000 1390.000     1
 1.87462885E+01 1.10879626E-02-3.98575907E-06 6.39750614E-10-3.79893976E-14    2
 5.06913951E+03-7.64034638E+01-2.92931452E+00 6.73904031E-02-6.07462148E-05    3
 2.68674840E-08-4.68719407E-12 1.19673113E+04 3.78968501E+01                   4
!26
C6H3O3            DUMMY C   6H   3O   3    0G   300.000  3000.000 1000.000     1
 0.7292035E 01  0.9250200E-01 -0.5168641E-04  0.1362709E-07 -0.1381148E-11     2
 0.1031673E 05 -0.1132738E 02 -0.1388958E 02  0.1720984E 00 -0.1700660E-03     3
 0.9601888E-07 -0.2373253E-10  0.1503234E 05  0.9270736E 02  0.1721641E+05     4
!27
!C5 Cyclic species
C5H7              BURC94C   5H   7    0    0G   298.150  5000.000 1000.000     1
 0.12785659E+02 0.16457862E-01-0.48399641E-05 0.73814083E-09-0.46000369E-13    2
 0.13869296E+05-0.44346243E+02-0.27323095E+01 0.40890569E-01 0.16006014E-04    3
-0.56085466E-07 0.26970736E-10 0.19024806E+05 0.40179407E+02 0.20070936E+05    4
!28
! Species: C5H6             CAS Number: 542-92-7
! Name:    Cyclopentadiene
! Source:  Burcat fit (Technion Reports), 2/03/87
! H0(298K) =       32.0000 (Kcal/mole),  S0(298K) =       64.5000 (cal/mole-K)
C5H6               20387C   5H   6          G   300.000  5000.000 1000.00      1
 9.68981500e+00 1.83826200e-02-6.26488400e-06 9.39337700e-10-5.08770800e-14    2
 1.10212400e+04-3.12290800e+01-3.19673900e+00 4.08136100e-02 6.81650500e-07    3
-3.13745900e-08 1.57722300e-11 1.52906800e+04 3.86993900e+01                   4
!Alz 2000
!C5H6              SAND87C   5H   6          G  0300.00   5000.00  1000.00      1
! 0.09689815E+02 0.01838262E+00-0.06264884E-04 0.09393377E-08-0.05087708E-12    2
! 0.01102124E+06-0.03122908E+03-0.03196739E+02 0.04081361E+00 0.06816505E-05    3
!-0.03137459E-06 0.01577223E-09 0.01529068E+06 0.03869939E+03                   4
!29
! Species: C5H5             CAS Number: 2143-53-5
! Name:    Cyclopentadienyl
! Source:  SNL fit to BACMP4 data, 10/19/93
! H0(298K) =       63.8300 (Kcal/mole),  S0(298K) =       68.1000 (cal/mole-K)
C5H5              101993H   5C   5          G   300.000  4000.000 1400.00      1
 1.53109400e+01 7.47380600e-03-5.83745800e-07-4.38665100e-10 7.69683900e-14    2
 2.52589000e+04-5.95159300e+01 1.00731600e+00 3.18988000e-02-4.74818900e-06    3
-1.10239000e-08 4.58468100e-12 3.04739000e+04 1.93416800e+01                   4
! Alz 2000
!C5H5              HIPP98H   5C   5          G  0300.00   5000.00  1000.00      1
! 0.01531094E+03 0.07473806E-01-0.05837458E-05-0.04386651E-08 0.07696839E-12    2
! 0.02799350E+06-0.05951593E+03 0.01531094E+03 0.07473806E-01-0.05837458E-05    3
!-0.04386651E-08 0.07696839E-12 0.02799350E+06-0.05951593E+03                   4
!30
!C5H5O: CYC5H5O. Isomer from Bozzelli
C5H5O         * BOZELLI C   5H   5O   1    0G   300.000  5000.000 1395.000     1  ! 5000   
-0.42339418E+01 0.62689654E-01-0.53048357E-04 0.22265999E-07-0.36577789E-11    2
 0.20514408E+05 0.44208816E+02-0.42339418E+01 0.62689654E-01-0.53048357E-04    3
 0.22265999E-07-0.36577789E-11 0.20514408E+05 0.44208816E+02                   4
!31
C5H5OH        * BOZELLI C   5H   6O   1    0G   300.000  5000.000 1395.000     1  ! 5000   
-0.43079135E+01 0.66328743E-01-0.56611345E-04 0.24137172E-07-0.40264343E-11    2
-0.57471924E+04 0.44996721E+02-0.43079135E+01 0.66328743E-01-0.56611345E-04    3
 0.24137172E-07-0.40264343E-11-0.57471924E+04 0.44996721E+02                   4
!32
C5H4O CY          BURC94C   5H   4O   1    0G   298.150  5000.000 1000.000     1
 0.11414429E+02 0.15932396E-01-0.62163612E-05 0.10960337E-08-0.72060379E-13    2
 0.25869594E+04-0.38872811E+02-0.40284484E+01 0.61012873E-01-0.55617657E-04    3
 0.25221734E-07-0.44957412E-11 0.55775663E+04 0.40486998E+02-0.80011450E+03    4
!33
C5H4OH            BURC89C   5H   5O   1    0G   200.000  6000.000 1000.000     1
 0.13367777E+02 0.15205911E-01-0.54592662E-05 0.88135325E-09-0.52774563E-13    2
 0.31380515E+04-0.45920099E+02-0.12820812E+01 0.49040075E-01-0.13687402E-04    3
-0.29134476E-07 0.19006885E-10 0.61420727E+04 0.30797801E+02 0.10517228E+05    4
!34
C5H4 CY           BURC94C   5H   4    0    0G   200.000  6000.000 1000.        1
 0.10106809E+02 0.13457466E-01-0.48862383E-05 0.79465424E-09-0.47821691E-13    2
 0.61714735E+05-0.30155332E+02 0.98338482E+00 0.21429446E-01 0.33390071E-04    3
-0.66941379E-07 0.30563346E-10 0.64905174E+05 0.20682801E+02 0.66327982E+05    4
!35
! C5H3O thermo taken from Bozzelli's mech
C5H3O          BOZELLI  C   5H   3O   1    0G   300.000  5000.000 1394.000     1
 1.37920307E+01 9.94676171E-03-3.53224669E-06 5.62416803E-10-3.32119217E-14    2
 2.82749422E+04-5.06039865E+01-2.97900157E+00 5.40428052E-02-4.87013197E-05    3
 2.18001279E-08-3.86113970E-12 3.35757242E+04 3.76713392E+01                   4
!36
! C5H3 is cyclic. In none's mechanism we used the thermo of a linear compound
C5H3            BUR94   C   5H   3O   0    0G   200.000  6000.000  1000.000    1
 0.10397501E+02 0.10548283E-01-0.38462526E-05 0.62738447E-09-0.37836482E-13    2
 0.79435481E+05-0.30539213E+02-0.30279743E+00 0.31376032E-01 0.30789383E-05    3
-0.35937535E-07 0.19474441E-10 0.82652282E+05 0.26395722E+02 0.83921947E+05    4
!37
! C5 Linear species
!
! C5H8 (C=CC=CC)
CH2CHCHCHCH3      BURC92C   5H   8    0    0G   298.150  3000.000 1000.000     1
 0.19403114E+02 0.96325407E-02-0.15683147E-05 0.00000000E+00 0.00000000E+00    2
 0.20635571E+03-0.80798713E+02-0.30882087E+00 0.48355898E-01-0.22284758E-04    3
 0.00000000E+00 0.00000000E+00 0.72982329E+04 0.26828785E+02 0.91585433E+04    4
!38
! C5H7 (C=CC.C=C) ISOMER 1
CH2CHC-HCHCH2  *BOZZELLIC   5H   7    0    0G   298.150  3000.000 1000.000     1 !3000
-0.38243356E+01 0.61688258E-01-0.51842862E-04 0.23066250E-07-0.42111869E-11    2
 0.23630695E+05 0.43724640E+02-0.38243356E+01 0.61688258E-01-0.51842862E-04    3
 0.23066250E-07-0.42111869E-11 0.23630695E+05 0.43724640E+02                   4
!39
! C5H7 (C=CC=CC.) ISOMER 2
CH2CHCHCHC-H2  *BOZZELLIC   5H   7    0    0G   298.150  3000.000 1000.000     1
-0.38710772E+01 0.68246024E-01-0.69740449E-04 0.40133702E-07-0.95081463E-11    2
 0.23379511E+05 0.43330449E+02-0.38710772E+01 0.68246024E-01-0.69740449E-04    3
 0.40133702E-07-0.95081463E-11 0.23379511E+05 0.43330449E+02                   4
!CHECK C5H5: CHECKED 10/8/98. SAME ISOMER FROM BURCAT'S DATABASE
!40
CHCCHCHC-H2     BUR94ZM C   5H   5O   0    0G   298.150  3000.000 1000.000     1
 0.14889675E+02 0.82161004E-02-0.15178062E-05 0.16268184E-09-0.88052708E-14    2
 0.42719249E+05-0.53382883E+02-0.26085299E+01 0.65236909E-01-0.82191379E-04    3
 0.60364270E-07-0.19071607E-10 0.47360405E+05 0.35504920E+02                   4
!41
! C5H7O (C=CC.C=COH)
CH2CHC-HCHCHOH *BOZZELLIC   5H   7O   1    0G   298.150  3000.000 1000.000     1  ! 3000
-0.42945572E+01 0.74945315E-01-0.72487281E-04 0.36614152E-07-0.74347345E-11    2
 0.21362767E+04 0.47821105E+02-0.42945572E+01 0.74945315E-01-0.72487281E-04    3
 0.36614152E-07-0.74347345E-11 0.21362767E+04 0.47821105E+02                   4
!42
! C5H7OH (C=CC=CCOH) Thermo taken from Bozzelli's mechanism
CH2CHCHCHCH2OH  BOZELLI C   5H   8O   1    0G   298.150  3000.000 1000.000     1
 1.56864064E+01 1.91906779E-02-6.58044838E-06 1.02320738E-09-5.94229022E-14    2
-1.56503172E+04-5.50794572E+01-2.74469890E-01 6.00349537E-02-4.81885682E-05    3
 2.08577144E-08-3.72750466E-12-1.03784062E+04 2.95196038E+01                   4
!43
! C5H7O2 (C=OCCC.CO)  Thermo taken from Bozzelli's mechanism
CHOCH2CH2C-HCHO BOZELLI C   5H   7O   2    0G   298.150  3000.000 1000.000     1
 1.67495698E+01 1.76002589E-02-5.98916805E-06 9.27650094E-10-5.37629506E-14    2
-2.14460869E+04-5.28247697E+01 5.70045881E+00 3.60712265E-02-1.38686845E-05    3
-7.62072050E-11 8.31375090E-13-1.68594701E+04 9.14837948E+00                   4
!44
! Species: CH2CHCHCH2       CAS Number: 106-99-0
! Name:    Trans-1,3-Butadiene
! Source:  SNLL fit to BAC-MP4 data, 12/01/89
! H0(298K) =       28.3300 (Kcal/mole),  S0(298K) =       69.7400 (cal/mole-K)
CH2CHCHCH2        120189C   4H   6          G   300.000  4000.000 1000.00      1
 1.25443700e+01 9.59652500e-03-9.18701200e-07-5.42964000e-10 1.00536400e-13    2
 8.59733000e+03-4.21745100e+01 1.93162400e+00 2.47903000e-02 3.01807100e-06    3
-1.15468600e-08 2.58662300e-12 1.25546800e+04 1.70199900e+01                   4
!45
! C4H5 isomers
! Taken from THERMDAT
! ISOMER 1: C4H5 (C=CC.=C)
CH2CHC-CH2      SANDIA89C   4H   5          G  0300.00   4000.00  1000.00      1
 0.01199776E+03 0.07990580E-01-0.08098173E-05-0.04568733E-08 0.08636910E-12    2
 0.03228493E+06-0.03528495E+03 0.03879443E+02 0.01997664E+00 0.01872777E-04    3
-0.09306953E-07 0.02386116E-10 0.03526859E+06 0.09842152E+02                   4
!46
!ISOMER 2: C4H5 (C=CC=C.)
CH2CHCHC-H      SANDIA89C   4H   5          G  0300.00   4000.00  1000.00      1
 0.01286597E+03 0.07943369E-01-0.08626466E-05-0.04655635E-08 0.08951131E-12    2
 0.03783552E+06-0.04182502E+03 0.02995240E+02 0.02288456E+00 0.01975471E-04    3
-0.01148245E-06 0.03197824E-10 0.04142218E+06 0.01289454E+03                   4
!47
! Species: CH2CHCCH         CAS Number: 689-97-4
! Name:    But-1-yn-3-ene (Planar Cs)
! Source:  SNLL fit to BAC-MP4 data, 8/24/89
! H0(298K) =       69.1400 (Kcal/mole),  S0(298K) =       66.4900 (cal/mole-K)
CH2CHCCH           82489C   4H   4          G   300.000  4000.000 1000.00      1
 1.06977700e+01 6.98201400e-03-6.56774700e-07-3.88451700e-10 7.20094600e-14    2
 3.03480300e+04-3.12843000e+01 3.23389300e+00 1.86563400e-02 1.27032000e-06    3
-9.41009600e-09 2.95611100e-12 3.30109700e+04 9.92267600e+00                   4
!48
! Species: HCCHCCH          CAS Number: 2810-61-9
! Name:    1-Buten-3-ynyl (2A' HCCH cis)
! Source:  SNLL fit to Burcat data, 8/24/89
! H0(298K) =       129.910 (Kcal/mole),  S0(298K) =       68.8000 (cal/mole-K)
HCCHCCH            82489C   4H   3          G   300.000  4000.000 1000.00      1
 1.07527400e+01 5.38115300e-03-5.54963800e-07-3.05226600e-10 5.76174000e-14    2
 6.12141900e+04-2.97302500e+01 4.15388200e+00 1.72628700e-02-2.38937400e-07    3
-1.01870000e-08 4.34050500e-12 6.33807100e+04 6.03650700e+00                   4
!49
! Species: H2CCCCH          CAS Number: 22112-56-7
! Name:    1,2,3-Butatrienyl (2A')
! Source:  SNLL fit to BAC-MP4 data, 8/24/89
! H0(298K) =       111.340 (Kcal/mole),  S0(298K) =       72.8300 (cal/mole-K)
H2CCCCH            82489C   4H   3          G   300.000  4000.000 1000.00      1
 1.13140900e+01 5.01441400e-03-5.35044500e-07-2.82530900e-10 5.40327900e-14    2
 5.18121100e+04-3.06243400e+01 6.54579900e+00 1.24247700e-02 5.60322600e-07    3
-5.63114100e-09 1.66521800e-12 5.35250300e+04-4.26408200e+00                   4
!50
! Species: C4H2             CAS Number: 460-12-8
! Name:    Butadiyne
! Source:  Burcat (LSU calculations), 12/16/86
! H0(298K) =       111.700 (Kcal/mole),  S0(298K) =       59.8000 (cal/mole-K)
C4H2              121686C   4H   2          G   300.000  5000.000 1000.00      1
 9.03140700e+00 6.04725300e-03-1.94878900e-06 2.75486300e-10-1.38560800e-14    2
 5.29473600e+04-2.38506800e+01 4.00519200e+00 1.98100000e-02-9.86587700e-06    3
-6.63515800e-09 6.07741300e-12 5.42406500e+04 1.84573700e+00                   4
!C4H2              SAND86C   4H   2          G  0300.00   5000.00  1000.00      1
! 0.09031407E+02 0.06047253E-01-0.01948789E-04 0.02754863E-08-0.01385608E-12    2
! 0.05294736E+06-0.02385068E+03 0.04005192E+02 0.01981000E+00-0.09865877E-04    3
!-0.06635158E-07 0.06077413E-10 0.05424065E+06 0.01845737E+02                   4
!51
! Species: C4H              CAS Number: 53561-65-2
! Name:    1,3-Butadiynyl
! Source:  Burcat (Technion Reports), 12/16/86
! H0(298K) =       155.100 (Kcal/mole),  S0(298K) =       60.9000 (cal/mole-K)
C4H               121686C   4H   1          G   300.000  5000.000 1000.00      1
 6.24288200e+00 6.19368300e-03-2.08593200e-06 3.08220300e-10-1.63648300e-14    2
 7.56801900e+04-7.21080600e+00 5.02324700e+00 7.09237500e-03-6.07376200e-09    3
-2.27575200e-09 8.08699400e-13 7.62381300e+04-6.94259400e-02                   4
!C4H               SAND86C   4H   1          G  0300.00   5000.00  1000.00      1
! 0.06242882E+02 0.06193683E-01-0.02085932E-04 0.03082203E-08-0.01636483E-12    2
! 0.07568019E+06-0.07210806E+02 0.05023247E+02 0.07092375E-01-0.06073762E-07    3
!-0.02275752E-07 0.08086994E-11 0.07623813E+06-0.06942594E+00                   4
!52
! C4H6O2 (C=OCCC=O)   Thermo taken from Bozzelli's mechanism
CHOCH2CH2CHO     BOZELLIC   4H   6O   2    0G   298.150  3000.000 1000.000     1
 1.44406255E+01 1.50487556E-02-5.13967301E-06 7.97895590E-10-4.63122524E-14    2
-4.11449658E+04-4.58917536E+01 4.48171350E+00 3.44515192E-02-1.84600554E-05    3
 4.48418420E-09-3.58800501E-13-3.72374921E+04 9.07149396E+00                   4
!53
! C4H5O2 (C=OCCC.=O)   Thermo taken from Bozzelli's mechanism
CHOCH2CH2C-O  BOZELLI   C   4H   5O   2    0G   298.150  3000.000 1000.000     1
 1.39398821E+01 1.30768500E-02-4.49050064E-06 6.99619378E-10-4.07081554E-14    2
-2.21572650E+04-4.08348854E+01 5.26873651E+00 2.96232020E-02-1.54390995E-05    3
 3.50877521E-09-2.31149542E-13-1.87116524E+04 7.15918873E+00                   4
!54
! C4H5O isomers
! ISOMER 1: C4H5O (C=CC.C=O)
CH2CHC-HCHO * BOZELLI   C   4H   5O   1    0G   300.000  5000.000 1393.000     1 !5000
-0.13429321E+00 0.40556401E-01-0.27727983E-04 0.94021180E-08-0.12694440E-11    2
 0.62414291E+04 0.28516478E+02-0.13429321E+00 0.40556401E-01-0.27727983E-04    3
 0.94021180E-08-0.12694440E-11 0.62414291E+04 0.28516478E+02                   4
!55
! C4H4O (C=CC=C=O)
CH2CHCHCO   * BOZELLI   C   4H   4O   1    0G   300.000  5000.000 1401.000     1 ! 5000
-0.42424118E+00 0.51268460E-01-0.52424319E-04 0.26074010E-07-0.48901919E-11    2
-0.82070692E+03 0.25461722E+02-0.42424118E+00 0.51268460E-01-0.52424319E-04    3
 0.26074010E-07-0.48901919E-11-0.82070692E+03 0.25461722E+02                   4
!56
! C4H3O (C.=CC=C=O)
C-HCHCHCO   * BOZELLI   C   4H   3O   1    0G   300.000  5000.000 1401.000     1 !5000
-0.18601153E+01 0.65803235E-01-0.93219137E-04 0.63201034E-07-0.15977848E-10    2
 0.28997015E+05 0.31747447E+02-0.18601153E+01 0.65803235E-01-0.93219137E-04    3
 0.63201034E-07-0.15977848E-10 0.28997015E+05 0.31747447E+02                   4
!57
CH2C-CHCO     DUMMY     C   4H   3O   1    0G   300.000  5000.000 1401.000     1 !5000
-0.18601153E+01 0.65803235E-01-0.93219137E-04 0.63201034E-07-0.15977848E-10    2
 0.28997015E+05 0.31747447E+02-0.18601153E+01 0.65803235E-01-0.93219137E-04    3
 0.63201034E-07-0.15977848E-10 0.28997015E+05 0.31747447E+02                   4
!58
! C4H2O
CHCCHCO       DUMMY     C   4H   2O   1    0G   300.000  5000.000 1401.000     1 !5000
-0.18601153E+01 0.65803235E-01-0.93219137E-04 0.63201034E-07-0.15977848E-10    2
 0.28997015E+05 0.31747447E+02-0.18601153E+01 0.65803235E-01-0.93219137E-04    3
 0.63201034E-07-0.15977848E-10 0.28997015E+05 0.31747447E+02                   4
!59
! C4HO
CHCC-CO       DUMMY     C   4H   1O   1    0G   300.000  5000.000 1401.000     1 !5000
-0.18601153E+01 0.65803235E-01-0.93219137E-04 0.63201034E-07-0.15977848E-10    2
 0.28997015E+05 0.31747447E+02-0.18601153E+01 0.65803235E-01-0.93219137E-04    3
 0.63201034E-07-0.15977848E-10 0.28997015E+05 0.31747447E+02                   4
!60
! Species: H2C4O            CAS Number: 63766-91-6
! Name:    Butatrienone
! Source:  SNLL fit to BAC-MP4 data, 12/01/89
! H0(298K) =       54.5800 (Kcal/mole),  S0(298K) =       66.4200 (cal/mole-K)
H2C4O             120189H   2C   4O   1     G   300.000  4000.000 1000.00      1
 1.02688800e+01 4.89616400e-03-4.88508100e-07-2.70856600e-10 5.10701300e-14    2
 2.34690300e+04-2.81598500e+01 4.81097100e+00 1.31399900e-02 9.86507300e-07    3
-6.12072000e-09 1.64000300e-12 2.54580300e+04 2.11342400e+00                   4
!H2C4O             SAND89H   2C   4O   1     G  0300.00   4000.00  1000.00      1
! 0.01026888E+03 0.04896164E-01-0.04885081E-05-0.02708566E-08 0.05107013E-12    2
! 0.02346903E+06-0.02815985E+03 0.04810971E+02 0.01313999E+00 0.09865073E-05    3
!-0.06120720E-07 0.01640003E-10 0.02545803E+06 0.02113424E+02                   4
!61
! C3H6
CH2CHCH3       SANDIA89 C   3H   6          G  0300.00   5000.00  1000.00      1
 0.06732257E+02 0.01490834E+00-0.04949899E-04 0.07212022E-08-0.03766204E-12    2
-0.09235703E+04-0.01331335E+03 0.01493307E+02 0.02092518E+00 0.04486794E-04    3
-0.01668912E-06 0.07158146E-10 0.01074826E+05 0.01614534E+03                   4
!62
! C3H5 isomers
CH2CHC-H2      SANDIA89 C   3H   5          G  0300.00   4000.00  1000.00      1
 0.09651539E+02 0.08075596E-01-0.07965424E-05-0.04650696E-08 0.08603280E-12    2
 0.01530096E+06-0.02686774E+03 0.02276486E+02 0.01985564E+00 0.01123842E-04    3
-0.01014576E-06 0.03441342E-10 0.01789497E+06 0.01372515E+03                   4
!63
CH2C-CH3       SANDIA89 C   3H   5          G  0300.00   4000.00  1000.00      1
 0.09101018E+02 0.07964168E-01-0.07884945E-05-0.04562036E-08 0.08529212E-12    2
 0.02670680E+06-0.02150559E+03 0.03385811E+02 0.01404534E+00 0.03204127E-04    3
-0.03824120E-07-0.09053742E-11 0.02909066E+06 0.01126649E+03                   4
!64
C-HCHCH3       SANDIA89 C   3H   5          G  0300.00   4000.00  1000.00      1
 0.09209764E+02 0.07871413E-01-0.07724523E-05-0.04497357E-08 0.08377272E-12    2
 0.02853967E+06-0.02232370E+03 0.03161863E+02 0.01518100E+00 0.02722659E-04    3
-0.05177112E-07 0.05435286E-12 0.03095548E+06 0.01197973E+03                   4
!65
! C3H4 isomers
H2CCCH2           SAND93H   4C   3          G  0300.00   4000.00  1400.00      1
 0.09776256E+02 0.05302138E-01-0.03701118E-05-0.03026386E-08 0.05089581E-12    2
 0.01954972E+06-0.03077061E+03 0.02539831E+02 0.01633437E+00-0.01764950E-04    3
-0.04647365E-07 0.01729131E-10 0.02251243E+06 0.09935702E+02                   4
!66
H3CCCH            SAND93H   4C   3          G  0300.00   4000.00  1400.00      1
 0.09768102E+02 0.05219151E-01-0.03753140E-05-0.02992191E-08 0.05107878E-12    2
 0.01860277E+06-0.03020678E+03 0.03029730E+02 0.01498961E+00-0.01398500E-04    3
-0.03969619E-07 0.01388217E-10 0.02148408E+06 0.08004594E+02                   4
!67
! Species: H2CCCH           CAS Number: 6401-87-2
! Name:    2-Propynyl (C2v 2B2)
! Source:  SNLL fit to BAC-MP4 data, 8/24/89
! H0(298K) =       83.0300 (Kcal/mole),  S0(298K) =       61.4800 (cal/mole-K)
H2CCCH             82489C   3H   3          G   300.000  4000.000 1000.00      1
 8.83104700e+00 4.35719500e-03-4.10906700e-07-2.36872300e-10 4.37652000e-14    2
 3.84742000e+04-2.17791900e+01 4.75420000e+00 1.10802800e-02 2.79332300e-07    3
-5.47921200e-09 1.94962900e-12 3.98888300e+04 5.85454900e-01                   4
!68
! Species: C3H2             CAS Number: 67152-18-5
! Name:    1,2-Propandiene-1,3-diyl (HCCCH 3B)
! Source:  SNL fit to BACMP4 data, 10/21/93
! H0(298K) =       129.390 (Kcal/mole),  S0(298K) =       62.0100 (cal/mole-K)
C3H2              102193H   2C   3          G   150.000  4000.000 1000.00      1
 7.67098100e+00 2.74874900e-03-4.37094300e-07-6.45559900e-11 1.66388700e-14    2
 6.25972200e+04-1.23689000e+01 3.16671400e+00 2.48257200e-02-4.59163700e-05    3