!
!  Andrae, J.C.G., "Comprehensive Chemical Kinetic Modeling of Toluene Reference Fuels Oxidation", Fuel, 2013, doi:10.1016/j.fuel.2013.01.070
!  137 species, 635 reactions
!
!
ELEMENTS
O H C N AR
END
SPECIES
C6H5CH3 C6H5CH2 OC6H4CH3 HOC6H4CH3 C6H4CH3 C6H5CH2OO C6H5CH2OOH 
C6H5CH2O C6H5CHO BIBENZYL C6H5CO C6H5CHCH2 C6H5C2H4 C6H5C2H5             
C6H5CH2OH
!
  CO CO2
  C6H6 C6H5 C6H4 C6H5O C6H5OH OC6H4O oOC6H4O OC6H3O C6H3O3
!
  C5H7 C5H6 C5H5 C5H5O C5H5OH C5H4O C5H4OH C5H4 C5H3O C5H3
!
  CH2CHCHCHCH3 CH2CHC-HCHCH2 CH2CHCHCHC-H2 CHCCHCHC-H2
  CH2CHC-HCHCHOH CH2CHCHCHCH2OH CHOCH2CH2C-HCHO
!
  CH2CHCHCH2 CH2CHC-CH2 CH2CHCHC-H
  CH2CHCCH HCCHCCH H2CCCCH C4H2 C4H
  CHOCH2CH2CHO CHOCH2CH2C-O CH2CHC-HCHO  
  CH2CHCHCO C-HCHCHCO CH2C-CHCO
  CHCCHCO CHCC-CO
  H2C4O
!
  CH2CHCH3 CH2CHC-H2 CH2C-CH3 C-HCHCH3 H2CCCH2 H3CCCH H2CCCH C3H2
  CH2CHCHO 
  CHOCHCHOH C-HCHCHO CH2CHC-O
!
  C2H6 C2H5 C2H4 C2H3 C2H2 C2H C2
  CH3HCO CH3CO CH2HCO C2H2OH OCHCHO CH2CO HCCOH HCCO C2O O2CCHOO-
  C2H5CHO C2H5CO
!
  CH4 CH3 CH2 CH2(S) CH C
  CH3OH CH3O CH2OH CH2O HCO HCOO
!
  H  O  OH  H2  O2  HO2  H2O  H2O2
!
  NO HNO HONO NO2
  N2
!
  C7H16 C7H15-1 C7H15-2  C7H15O2
  C7H14O2H O2C7H14O2H HO2C7H13O2H OC7H13O2H OC7H13O C5H11
  I*C3H7 PC4H9 
!
  C8H18 AC8H17 AC8H17OO AC8H16OOH-B AC8H16OOH-BO2
  OC8H15OOH OC8H15O JC8H16 IC4H8
!
  AR
!
END
REACTIONS
! ************************************************************************
! *                                                                      *                                                                      *
! *  TOLUENE OXIDATION MECHANISM                         *
! *                                                                      *                                                                      *
! ************************************************************************
C6H5CH3=C6H5CH2+H               1.52E+16    0      93499    ! [20] 
C6H5CH3=C6H5+CH3                4.62E+25   -2.5   104483    ! [20]
C6H5CH3+O2=C6H5CH2+HO2          2.18E+07    2.5    46045    ! [16]
C6H5CH3+OH=C6H5CH2+H2O          1.77E+05    2.4   -601.8    ! [21]  
C6H5CH3+O=C6H5CH2+OH            6.00E+10    0.7     7632    ! [22]
C6H5CH3+HO2=C6H5CH2+H2O2        1.02E+04    2.5  12339.3    ! [22]
C6H5CH3+H=C6H5CH2+H2            6.47E+00    4.0     3384    ! [23]  
C6H5CH3+H=C6H6+CH3              9.50E+05    2.0      943    ! [24]
C6H5CH3+O=OC6H4CH3+H            1.70E+13    0.0     3600    ! [25]  
C6H5CH3+CH3=CH4+C6H5CH2         4.00E-05    5.6     9000    ! [22]  
C6H5CH3+C6H5=C6H6+C6H5CH2       7.94E+12    0.0    11949    ! [22] 
!
C6H5CH3+H=C6H4CH3+H2            1.90E+07    2.0     9696    ! [24]  
C6H5CH3+O=C6H4CH3+OH            2.00E+13    0.0    14700    ! Bounaceur 2005 
C6H5CH3+OH=C6H4CH3+H2O          1.36E+04    2.7    619.6    ! [21]
C6H5CH3+HO2=C6H4CH3+H2O2        9.20E+12    0.0    28810    ! [26] 
C6H5CH3+CH3=C6H4CH3+CH4         4.37E-04    5.0    12300    ! [27]
C6H4CH3+O2=OC6H4CH3+O           2.60E13     0.0     6100    ! Bounaceur 2005
C6H4CH3+H=C6H5CH3               1.00E14     0.0        0    ! Bounaceur 2005 
C6H4CH3+H=C6H5CH2+H             1.00E13     0.0        0    ! Miller 1992 
C6H4CH3+O=OC6H4CH3              1.00E14     0.0        0    ! Bounaceur 2005 
C6H4CH3+OH=HOC6H4CH3            3.00E13     0.0        0    ! [15] 
C6H4CH3+HO2=OC6H4CH3+OH         5.00E12     0.0        0    ! Bounaceur 2005 
!
C6H5CH2=C5H5+C2H2           6.00E13     0.0    70000    ! Colket 1994  
C6H5CH2=H2CCCH+CH2CHCCH         2.00E14     0.0    83600    ! Colket 1994  
C6H5CH2+O=C6H5CHO+H         2.11E+14    0      0    ! [15]  
C6H5CH2+O=C6H5+CH2O         1.19E+14    0      0    ! [15]  
C6H5CH2+HO2=C6H5CH2O+OH         1.00E+13    0      0    ! [17,18]  
C6H5CH2O=C6H5CHO+H              1.99E+13    0      18728    ! [15] 
C6H5CH2O=C6H5+CH2O              8.55E+13        0      26017    ! [15]  
C6H5CH2+C6H5CH2=BIBENZYL        5.00E+12    0.0      454    ! [20]        
C6H5C2H5=C6H5CH2+CH3            2.00E+15    0      72700    
C6H5CH2+OH=C6H5CH2OH            2.00E+13    0      0    ! [22]  
!
C6H5CH2+O2(+M)=C6H5CH2OO(+M)            1.00E+10        0      -6000    ! [14]
  LOW /4.00E+16 -1.0 -8000/
  TROE /0.3 4000 800/
    DUP 
C6H5CH2OO(+M)=C6H5CH2+O2(+M)            1.00E+12        0      16200    ! [14]
  LOW /1.00E+22 -1.8 19200/
    DUP 
C6H5CH2OO(+M)=C6H5CHO+OH(+M)        9.50E+11    0.0    38488    ! [14]
  LOW /9.00E+30 -5.3 39500/  
C6H5CH2OO(+M)=C6H5O+CH2O(+M)        2.44E+11    0.0    38208    ! [14]
  LOW /4.00E+36 -7.5 44000/
C6H5CH2+O2=C6H5CH2O+O               6.32E+12        0      42920    ! Brezinsky 1984
!
C6H5CHO+O2=C6H5CO+HO2           7.00E+11    0.0    39500    ! [25]      
C6H5CHO+OH=C6H5CO+H2O               3.44E+09        1.2 -447    ! [22]    
C6H5CHO+H=C6H5CO+H2         2.28E+10    1.1 3279    ! [22]  
C6H5CHO+H=C6H6+HCO          1.20E+13    0   5148    
C6H5CHO+O=C6H5CO+OH         6.00E+12    0.0 1800    ! [25]  
C6H5CH2+C6H5CHO=C6H5CH3+C6H5CO          1.30E+11        0.0    11500    ! [25]    
CH3+C6H5CHO=CH4+C6H5CO          2.00E-06        5.6 1500    ! [25]  
C6H5+C6H5CHO=C6H6+C6H5CO        1.30E+11    0.0    11500    ! [25]  
!
C6H5CO=C6H5+CO              3.00E+12    0      34860    ! [22]
C6H5CH2OH+O2=C6H5CHO+HO2+H      2.00E+14    0      41400    
C6H5CH2OH+OH=C6H5CHO+H2O+H      8.43E+12    0   2583    
C6H5CH2OH+H=C6H5CHO+H2+H        8.00E+13    0   8235    
C6H5CH2OH+H=C6H6+CH2OH          5.30E+13    0   8100    ! [15]  
C6H5CH2OH+C6H5CH2=C6H5CHO+C6H5CH3+H 2.11E+11    0   9500    
C6H5CH2OH+C6H5=C6H5CHO+C6H6+H       1.40E+12    0   4400    
C6H5C2H5+OH=C6H5C2H4+H2O        4.80e12     0      0    ! Baulch 1992 
C6H5C2H5+HO2=C6H5C2H4+H2O2          6.20e4          2.50   13522    ! Baulch 2005 
C6H5C2H5+O=C6H5C2H4+OH                  2.23e13         0       3795    ! Baulch 2005 
C6H5C2H5+H=C6H5C2H4+H2              265             3.44    1003    ! Baulch 2005 
C6H5C2H4=C6H5CHCH2+H            3.16e13     0      50670    ! Muller 1988
C6H5CHCH2=C6H6+C2H2                 1.600E+11       0.0      58438  ! Muller 1988        
OC6H4CH3+H=HOC6H4CH3            1.00E+14    0      0    ! [25]
OC6H4CH3=C6H6+H+CO          7.60E+11    0      43800    ! [25]           
HOC6H4CH3+OH=OC6H4CH3+H2O       1.40E+08    1.4 -960    ! [25]  
HOC6H4CH3+H=OC6H4CH3+H2         1.20E+14    0.0    12400    ! [25]  
HOC6H4CH3+H=C6H5CH3+OH          2.21E+13    0   7910    
HOC6H4CH3+H=C6H5OH+CH3          5.80E+13    0   8100    ! [25]  
C6H5CH3+OC6H4CH3=C6H5CH2+HOC6H4CH3      1.60E+11    0      15100    ! [25]
! ************************************************************************
! *                                                                      *                                                                      *
! *  BENZENE OXIDATION MECHANISM (Alzueta et al. IJCK 32:498-522, 2000)  *
! *                                                                      *                                                                      *
! ************************************************************************
!
! *** C6H6/benzene reactions ***
!
C6H6+O  =  C6H5O+H                     2.2E13  0.00   4530 !   Bau94,Baj96
! BAJ/FON96 (405K): C6H5O primary product; C6H5OH cannot be excluded
C6H6+O  =  C6H5+OH                     2.0E13  0.00  14700 !   Lei89
C6H6+OH  =  C6H5+H2O                   1.6E08  1.42   1450 !   Bau92
C6H6+O2  =  C6H5+HO2                   6.0E13  0.00  63400 !   est
!
! *** C6H5/phenyl reactions ***
!
C6H5  =  C6H4+H                        1.4E15  0.00  83860 !   Kum97,est
! assume products instead of very endothermic C4H2+C2H2+H
!
C6H5+H  =  C6H6                        2.0E14  0.00      0 !   Kum97,Ack90       
C6H5+H  =  C6H4+H2                     2.0E07  2.00   1000 !   Pau96 est
C6H5+O  =  C5H5+CO                     1.0E14  0.00      0 !   Fra94
C6H5+OH  =  C6H5O+H                    5.0E13  0.00      0 !   Pau96 est
C6H5+OH  =  C6H4+H2O                   1.0E07  2.00   1000 !   Pau96 est
C6H5+HO2  =  C6H5O+OH                  3.0E13  0.00      0 !   est
C6H5+H2  =  C6H6+H                     5.7E04  2.43   6280 !   Meb97
C6H5+O2  =  C6H5O+O                    2.6E13  0.00   6100 ! Fra94
! Kum97: 1.0E13/0.0/3580
C6H5+O2  =  oOC6H4O+H                  3.0E13  0.00   9000 ! Fra94 991510
! Kum97: 4.6E12/0.00/3610
!
! *** C6H5O Subset ***
!
C6H5O  =  C5H5+CO                      7.4E11  0.00  43900 !   Fra94
C6H5O+H  =  C6H5OH                     2.5E14  0.00      0 !   Bau92
!C6H5O+O  =  OC6H4O+H                   1.7E14  0.00      0 !   But94
C6H5O+O  =  OC6H4O+H                   8.5E13  0.00      0 !   But94 50 %
C6H5O+O  =  oOC6H4O+H                  8.5E13  0.00      0 !   But94 50 %
C6H5O+O  =  C5H5+CO2                   1.0E13  0.00      0 !   But94
!
! *** C6H5OH Subset ***
!
C6H5OH  =  C5H6+CO                     1.0E12  0.00  60800 !   Hor98
C6H5OH+H  =  C6H5O+H2                  1.2E14  0.00  12400 !   Bau92
C6H5OH+H  =  C6H6+OH                   2.2E13  0.00   7930 !   Bau92
C6H5OH+O  =  C6H5O+OH                  1.3E13  0.00   2900 !   Bau94
C6H5OH+OH  =  C6H5O+H2O                3.0E06  2.00  -1310 !   Kni90
!C6H5OH+O2  =  C6H5O+HO2                1.0E13  0.00  38000 !   est 991027
C6H5OH+O2  =  C6H5O+HO2                8.0E12  0.00  40000 !   88       This work
C6H5OH+HO2  =  C6H5O+H2O2              1.0E12  0.00  10000 !   est
! analogy CH3OH+HO2
C6H5OH+C2H3  =  C6H5O+C2H4             6.0E12  0.00      0 !   Emd92 est
C6H5OH+CH2CHC-CH2  =  C6H5O+CH2CHCHCH2 6.0E12  0.00      0 !   Emd92 est
C6H5OH+C6H5  =  C6H5O+C6H6             4.9E12  0.00   4400 !   Fah88
!
! *** OC6H4O Subset ***
!
oOC6H4O  =   C5H4O+CO                  1.0E12  0.0   40000 !   est.
!
OC6H4O  =  C5H4O+CO                    3.7E11  0.00  59000 !   Alz98
OC6H4O  =  C5H4+CO2                    3.5E12  0.00  67000 !   Alz98
OC6H4O+H = C5H5O+CO                    2.5E13  0.00   4700 !   Alz98 est
! no distinguisment between isomers c5h5o
OC6H4O+H =  OC6H3O+H2                  2.0E12  0.00   8100 !   Alz98 est
! analogy c6h6 reaction
OC6H4O+O => C6H3O3+H                   1.5E13  0.00   4530 !   Alz98 est
! analogy c6h6 reaction
OC6H4O+O =  OC6H3O+OH                  1.4E13  0.00  14700 !   Alz98 est
! analogy c6h6 reaction
OC6H4O+OH =  OC6H3O+H2O                1.0E06  2.00   4000 !   Alz98
OC6H3O+H => 2C2H2+2CO                  1.0E14  0.00      0 !   Alz98 est
OC6H3O+H = OC6H4O                      1.0E14  0.00      0 ! est 991027
OC6H3O+O => C2H2+HCCO+2CO              1.0E14  0.00      0 !   Alz98 est
C6H3O3 => C2H2+HCCO+2CO                1.0E12  0.00  50000 !   Alz98 est
C6H3O3+H => C2H2+CH2CO+2CO             1.0E14  0.00      0 ! est 991028
!
! *** C5H6 Reactions ***
!
C5H6+H  =  C5H5+H2                     7.2E13  0.00   3500 !   Roy97
C5H6+H  =  C5H7                        2.4E73 -17.85 31500 !   Zho98 qrrk
C5H6+H  =  CH2CHC-HCHCH2               1.1E14 -0.16   3100 !   Zho98 qrrk
C5H6+O  =  C5H5O+H                     8.9E12 -0.15    590 !   Zho98 qrrk
  DUP
C5H6+O  =  C5H5O+H                     5.6E12 -0.06    200 !   Zho98 qrrk
  DUP
C5H6+O  =  C5H5+OH                     4.8E04  2.71   1100 !   Zho98 est^c
C5H6+OH  =  CH2CHC-HCHCHOH             1.1E13 -0.07    870 !   Zho98 qrrk
C5H6+OH  =  C5H5+H2O                   3.1E06  2.00      0 !   Zho98 est^c
C5H6+HO2  =  C5H7+O2                   1.3E15 -1.07   9530 !   Zho98 qrrk
C5H6+HO2  =  C5H5+H2O2                 1.1E04  2.60  12900 !   Zho98 est^c
C5H6+O2  =  C5H5+HO2                   4.0E13  0.00  37150 !   Zho98 est^c
C5H6+CH3  =  C5H5+CH4                  1.8E-1  4.00      0 !   Zho98 est^c
C5H6+C2H3  =  C6H6+CH3                 2.1E67 -16.08 42460 !   Zho98 est^c
C5H6+C2H3  =  C5H5+C2H4                1.2E-1  4.00      0 !   Zho98 est^c
C5H6+C6H5  =  C6H6+C5H5                1.0E-1  4.00      0 !   Zho98 est^c
C5H6+CH2CHC-CH2  =  C5H5+CH2CHCHCH2    6.0E12  0.00      0 !   Emd92 est
C5H6+C6H5O  =  C5H5+C6H5OH             3.2E11  0.00   8000 !   Emd92 est
!
! *** C5H7(CY), C5H7(L), C5H8(L), C5H7O(L), C5H7OH(L), C5H7O2(L) Reactions ***
!
C5H7 = CH2CHC-HCHCH2                   3.2E15  0.00  39500 !   Are93 %mar
C5H7+H  =  C5H6+H2                     3.6E12  0.00      0 !   est^d
C5H7+O  =  C5H6+OH                     1.0E13  0.00      0 !   est
C5H7+OH  =  C5H6+H2O                   2.4E13  0.00      0 !   Boz98 est^d
!C5H7+O2  =  C5H6+HO2                   1.3E11  0.00      0 !   est^d
C5H7+O2  =  CHOCH2CH2C-HCHO            8.0E24 -3.80  20000 !   Boz98 qrrk
CHOCH2CH2C-HCHO+O2  =  CHOCH2CH2CHO+HCOO 6.3E05  1.65  17480 !   Boz98 est
CH2CHC-HCHCH2  =  CH2CHCHCHC-H2        5.4E11 -0.70     60 !   Boz98
CH2CHC-HCHCH2+O2  =  CH2CHCHO+CH2HCO   1.2E36 -7.25  33600 !   Boz98 qrrk
CH2CHCHCHC-H2+H  =  CH2CHCHCHCH3       2.3E20 -1.60   3020 !   Boz98 qrrk
CH2CHCHCHC-H2+H  =  CH2CHCHC-H+CH3     2.9E26 -2.18  36770 !   Boz98 qrrk
CH2CHCHCHC-H2+O  =  CH2CHCHO+C2H3      2.0E14  0.00      0 !   Mar96 est^e
CH2CHCHCHC-H2+OH  =  CH2CHCHCHCH2OH    1.5E13  0.00      0 !   Boz98 est^e
CH2CHCHCHC-H2+O2  =  CH2CHC-HCHO+CH2O  8.2E10  0.18   9140 !   Boz98 qrrk
CH2CHCHCHCH3+H  =  CH2CHCHCH2+CH3      5.2E71 -16.38 51000 !   Boz98 qrrk
CH2CHCHCHCH3+H  =  CH2CHCHCHC-H2+H2    7.0E06  2.00   5000 !   Mar96 est^f
!CH2CHCHCHC-H2+H2  =  CH2CHCHCHCH3+H    1.1E05  2.38  19000 !   Boz98 est^e
CH2CHCHCHCH3+OH  =  CH2CHCHCHC-H2+H2O  7.0E06  2.00      0 !   Mar96 est^f
CH2CHCHCHCH2OH+H  =  CH2CHCHCH2+CH2OH  2.5E34 -6.12  16250 !   Boz98 qrrk
CH2CHC-HCHCHOH+O2  =  CHOCHCHOH+CH2HCO 1.2E36 -7.25  33600 !   Zho98 est
!
! *** C5H5(CY), C5H5(L) Reactions ***
!
C5H5  =  CHCCHCHC-H2                   1.0E12  1.00  77000 !   Roy97        
CHCCHCHC-H2  =  H2CCCH+C2H2            1.0E12  1.00  31000 !   Roy97
C5H5+H  =  C5H6                        1.5E14  0.00      0 !   Kum97,Bru88b
C5H5+O  =  CH2CHCHC-H+CO               3.2E13 -0.17    440 !   Zho98 qrrk
C5H5+O  =  C5H4O+H                     5.8E13 -0.02     20 !   Zho98
C5H5+OH  =  C5H5OH                     6.5E14 -0.85  -2730 !   Zho98 qrrk
  DUP
C5H5+OH  =  C5H5OH                     1.1E43 -8.76  18730 !   Zho98 qrrk
  DUP
C5H5+OH  =  C5H5OH                     1.1E59 -13.08 33450 !   Zho98 qrrk
  DUP
C5H5+OH  =  C5H4OH+H                   3.5E57 -12.18 48350 !   Zho98 qrrk
C5H5+HO2  =  C5H5O+OH                  6.3E29 -4.69  11650 !   Zho98 qrrk
C5H5+O2  =  CH2CHCHCO+HCO              1.2E19 -2.48  10970 !   Zho98 qrrk
!
! *** C5H5OH Subset ***
!
C5H5OH+H  =  C5H4OH+H2                 3.2E12  0.00      0 !   Boz98 est^f
C5H5OH+H  =  C5H5O+H2                  4.0E13  0.00   6094 !   Boz98 est^g
C5H5OH+O  =  C5H4OH+OH                 4.7E11  0.00      0 !   Boz98 est^g
C5H5OH+O  =  C5H5O+OH                  1.0E13  0.00   4683 !   Boz98 est^g
C5H5OH+OH  =  C5H4OH+H2O               5.5E12  0.00   1731 !   Boz98 est^g
C5H5OH+OH  =  C5H5O+H2O                1.0E13  0.00   1697 !   Boz98 est^g
C5H5OH+HO2  =  C5H4OH+H2O2             3.6E03  2.55  10531 !   Boz98 est
C5H5OH+HO2  =  C5H5O+H2O2              1.0E13  0.00  15800 !   Boz98 est
!
! *** C5H5O, C5H4OH, C5H4O, C5H3O, C5H4, C5H3 (ALL CY)  Subset ***
!
C5H5O  =  C5H4O+H                      2.9E32 -6.50  21220 !   Boz98 qrrk
C5H5O  =  CH2CHCHC-H+CO                1.1E79 -19.62 66250 !   Boz98 qrrk
C5H4OH = C5H4O+H                       2.1E13  0.00  54000 !Emd92, adj 991015
!2.1E13/0/48000 Emd92 est - rv too high with new thermo
C5H4OH+H = C5H5OH                      1.0E14  0.00      0 ! est 991028
C5H4OH+O2  =  C5H4O+HO2                1.0E13  0.00  10000 ! est 991027
C5H4O =>    C2H2+C2H2+CO               5.7E32 -6.76  68500 !   Wan98^h
  DUP
C5H4O =>    C2H2+C2H2+CO               6.2E41 -7.87  98700 !
  DUP
!C5H4O =>    C2H2+C2H2+CO               1.0E08  0.00      0 ! glob cons step
!  DUP                                                      ! 1510
C5H4O+H  =  CH2CHCHC-H+CO              2.1E61 -13.27 40810 !   Boz98 qrrk            
C5H4O+H  =  C5H3O+H2                   2.0E12  0.00   8100 !   est
! est. analogy c6h6
C5H4O+O  =  CH2CHCCH+CO2               1.0E13  0.00   2000 !   Alz98 est
C5H4O+O  =  C5H3O+OH                   1.4E13  0.00  14700 !   est
! est. analogy c6h6
C5H4O+OH  =  C5H3O+H2O                 1.1E08  1.42   1450 !   est
! est. analogy c6h6
!C5H4O+OH  =  CH2CHC-CH2+CO2             7.0E12  0.00   1250 !  Alz98 est
C5H3O+H =  C5H4O                       1.0E14   0.00     0 ! est 991028
C5H3O+O2  =  C-HCHCHCO+CO2             9.7E58 -13.47 38180 !   Boz98 qrrk
C5H4+H  =   C5H3+H2                    1.0E06  2.50   5000 !   Alz98 est
C5H4+O  =   C5H3+OH                    1.0E06  2.50   3000 !   Alz98 est
C5H4+OH  =   C5H3+H2O                  1.0E06  2.00      0 !   Alz98 est
C5H3+H = C5H4                          1.0E14  0.00      0 ! est 991028
C5H3+O2  =   C2H2+HCCO+CO              1.0E12  0.00      0 !   Alz98 est
!
! *** C4H6O2, C4H5O2 Reactions ***
!
CHOCH2CH2CHO+H  =  CHOCH2CH2C-O+H2     2.3E10  1.05   3279 !   Boz98 est^i
CHOCH2CH2CHO+OH  =  CHOCH2CH2C-O+H2O   3.5E09  1.18   -447 !   Boz98 est^i
CHOCH2CH2C-O+O2  =   C2H4+O2CCHOO-     1.6E45 -9.92  20670 !   Boz98 qrrk
!
! *** C4H5O Reactions ***
!
CH2CHC-HCHO =>    CH2CHC-H2+CO         6.1E05  0.92  -1120 !   est^j
CH2CHC-HCHO+O2 => CH2CHCHO+HCOO        1.2E36 -7.25  33600 !   est
!
! *** C4H4O Reactions ***
!
!CH2CHCHCO+H  =  CH2CHCH2C.O            1.7E07  1.03   -550 !   Boz98 qrrk comp??
CH2CHCHCO+H  =  CH2CHC-H2+CO           6.6E13 -0.02   2740 !   Boz98 qrrk
CH2CHCHCO+H  =  CH2C-CHCO+H2           1.5E07  2.00   6000 !   est
! est 0.5 ch2chchch2+h=ch2chc.ch2+h2
!CH2CHCHCO+H  =  CH2CHC-H2+CO           5.9E06  2.00   1300 !   est
! est. analogy ch2co
CH2CHCHCO+O  =  CH2HCO+HCCO            3.0E08  1.45   -860 !   est
! est 0.5 ch2chchch2+o=ch2chc.ch2+hco
CH2CHCHCO+OH  =  C-HCHCHCO+H2O         1.0E07  2.00   5000 !   est
! est 0.5 ch2chchch2+oh=ch2chchc.h+h2o
CH2CHCHCO+OH  =  CH2C-CHCO+H2O         1.0E07  2.00   2000 !   est
! est 0.5 ch2chchch2+oh=ch2chc.ch2+h2o
CH2CHCHCO+OH  =  CH2CHC-H2+CO2         3.0E12  0.00      0 !   est
! est. analogy ch2co
!
! *** C4H3O Reactions ***
!
CH2C-CHCO+H  =>   H2CCCH+HCO          1.0E14  0.00      0 !   est
! est. ch2chc.ch2+h=h2ccch+ch3
CH2C-CHCO+OH  =>   CHCCHCO+H2O        3.0E13  0.00      0 !   est
! est. ch2chc.ch2+oh=ch2chcch+h2o
C-HCHCHCO  =   H2CCCH+CO              6.1E05  0.92  -1120 !   est^k
C-HCHCHCO+H  =   CH2C-CHCO+H          1.0E14  0.00      0 !   est
! est. ch2chchc.h+h=ch2chc.ch2+h
C-HCHCHCO+H  =   CHCCHCO+H2           3.0E07  2.00   1000 !   est
! est. ch2chchc.h+h=ch2chcch+h2
C-HCHCHCO+OH  =   CHCCHCO+H2O         2.0E07  2.00   1000 !   est
! est. ch2chchc.h+oh=ch2chcch+h2o
C-HCHCHCO+O2  =   CHCCHCO+HO2         1.0E07  2.00  10000 !   est
! est. ch2chchc.h+o2=>c.hchcho+ch2o
!
! *** C4H2O Reactions ***
!
CHCCHCO+H =>  CHCC-CO+H2              3.0E07  2.00   5000 !   est
! est. ch2chcch+h=h2cccch+h2
CHCCHCO+OH =>  CHCC-CO+H2O            1.0E07  2.00   2000 !   est
! est. ch2chcch+oh=h2cccch+h2o
!
! *** C4HO Reactions ***
!
CHCC-CO+H =>  C3H2+CO                 5.0E13  0.00      0 !   est
CHCC-CO+O =>  C2H+CO+CO               1.0E13  0.00      0 !   est
CHCC-CO+OH =>  C2H2+CO+CO             1.0E13  0.00      0 !   est
CHCC-CO+O2 =>  HCCO+CO+CO             1.0E12  0.00      0 !   est
!
! *** C4H6 Reactions ***
!
CH2CHCHCH2+H  =  CH2CHCHC-H+H2         3.0E07  2.00  13000 !   Pau96
CH2CHCHCH2+H  =  CH2CHC-CH2+H2         3.0E07  2.00   6000 !   Pau96
CH2CHCHCH2+O  =  CH2CHC-H2+HCO         6.0E08  1.45   -858 !   Mar96
CH2CHCHCH2+O  =  CH2HCO+C2H3           1.0E12  0.00      0 !   Mar96
CH2CHCHCH2+OH  =  CH2CHCHC-H+H2O       2.0E07  2.00   5000 !   Pau96
CH2CHCHCH2+OH  =  CH2CHC-CH2+H2O       2.0E07  2.00   2000 !   Pau96
CH2CHCHCH2+O2  =  CH2CHCHC-H+HO2       3.0E13  0.00  57800 !    est.
CH2CHCHCH2+O2  =  CH2CHC-CH2+HO2       3.0E13  0.00  45850 !    est.
!
! *** C4H5 Reactions ***
!
CH2CHCHC-H(+M)=CH2CHCCH+H(+M)          1.0E14  0.00  37000 !   Pau96
    LOW/1.0E14  0.0  30000./
    H2/2/ CO/2/ CO2/3/  H2O/5/
CH2CHCHC-H+H  =  CH2CHC-CH2+H          1.0E14  0.00      0 !   Pau96
CH2CHCHC-H+H  =  CH2CHCCH+H2           3.0E07  2.00   1000 !   Pau96
CH2CHCHC-H+OH  =  CH2CHCCH+H2O         2.0E07  2.00   1000 !   Pau96
!CH2CHCHC-H+O2 => C-HCHCHO+CH2O         1.0E12  0.00      0 !   Mar96     ! 215
CH2CHCHC-H+O2 => C-HCHCHO+CH2O         1.0E11  0.00      0 !   Mar96     ! 215
!CH2CHCHC-H+O2 => CH2CHCCH+HO2          1.0E07  2.00  10000 !   Mar96     ! 216
CH2CHCHC-H+O2 => CH2CHCCH+HO2          1.0E08  2.00  10000  !   Mar96     ! 216
CH2CHC-CH2(+M)=CH2CHCCH+H(+M)          1.0E14  0.00  50000 !   Pau96
    LOW/2.0E15  0.0  42000./
    H2/2/ CO/2/ CO2/3/  H2O/5/
CH2CHC-CH2+H  =  H2CCCH+CH3            1.0E14  0.00      0 !   Pau96
CH2CHC-CH2+OH  =  CH2CHCCH+H2O         3.0E13  0.00      0 !   Pau96
!
! *** C4H4 Reactions ***
!
CH2CHCCH+H  =  HCCHCCH+H2             2.0E07  2.00  15000 !   Pau96
CH2CHCCH+H  =  H2CCCCH+H2             3.0E07  2.00   5000 !   Pau96
CH2CHCCH+O  =  C2H3+HCCO              1.4E07  2.00   1900 !   est.
! est. analogy c2h2
CH2CHCCH+O  =  H2CCCH+HCO            8.1E06  1.88    180 !   est.
! est. analogy c2h4
CH2CHCCH+OH  =  HCCHCCH+H2O           7.5E06  2.00   5000 !   Pau96
CH2CHCCH+OH  =  H2CCCCH+H2O           1.0E07  2.00   2000 !   Pau96
CH2CHCCH+O2  =  HCCHCCH+HO2          3.0E13  0.00  60750 !   est.
CH2CHCCH+O2  =  H2CCCCH+HO2          3.0E13  0.00  42200 !   est.
!
! *** C4H3 Reactions ***
!
HCCHCCH(+M)  =  C4H2+H(+M)            1.0E14  0.00  36000 !   Pau96
     LOW/ 1.0E14 0.0   30000./
     H2/2/ CO/2/ CO2/3/  H2O/5/
HCCHCCH+H  =  H2CCCCH+H               1.0E14  0.00      0 !   Pau96
HCCHCCH+OH  =  C4H2+H2O               1.0E13  0.00      0 !   est
HCCHCCH+O2  =  C2H2+CO+HCO            3.0E12  0.00      0 !   est,glob.
HCCHCCH+C2H2  =  C6H5                 2.8E03  2.90   1400 !   Pau96
H2CCCCH(+M)  =  C4H2+H(+M)            1.0E14  0.00  55000 !   Pau96
    LOW/2.0E15  0.0  48000./
    H2/2/ CO/2/ CO2/3/  H2O/5/
H2CCCCH+H  =  C4H2+H2                 5.0E13  0.00      0 !   Pau96
H2CCCCH+O  =  CH2CO+C2H               2.0E13  0.00      0 !   Pau96
H2CCCCH+O  =  H2C4O+H                 2.0E13  0.00      0 !   Pau96
H2CCCCH+OH  =  C4H2+H2O               3.0E13  0.00      0 !   Pau96
H2CCCCH+O2  =  CH2CO+HCCO             1.0E12  0.00      0 !   Pau96
H2CCCCH+CH2  =  H3CCCH+C2H            2.0E13  0.00      0 !   Pau96
!
! *** C4H2 Reactions ***
!
C4H2+H  =  C4H+H2                      2.0E07  2.00   2000 !   Pau96
C4H2+O  =  C3H2+CO                     1.2E12  0.00      0 !   Pau96
C4H2+OH  =  H2C4O+H                    6.7E12  0.00   -410 !   Pau96
C4H2+OH  =  C4H+H2O                    1.0E07  2.00   1000 !   Pau96
!
! *** H2C4O Reactions ***
!
H2C4O+H  =  C2H2+HCCO                  5.0E13  0.00   3000 !   Pau96
H2C4O+OH  =  CH2CO+HCCO                1.0E07  2.00   2000 !   Pau96
!
! *** C4H Reactions ***
!
C4H+O2  =  CO+CO+C2H                   1.0E13  0.00      0 !   Pau96
!
! *** C3H6 Subset ***
!
CH2CHCH3+H  =  C2H4+CH3                7.2E12  0.00   1300 !   Tsa91
CH2CHCH3+H  =  CH2CHC-H2+H2            1.7E05  2.50   2490 !   Tsa91
CH2CHCH3+H  =  CH2C-CH3+H2             4.1E05  2.50   9800 !   Tsa91
CH2CHCH3+H  =  C-HCHCH3+H2             8.0E05  2.50  12300 !   Tsa91
CH2CHCH3+O  =  C2H5+HCO                1.6E07  1.76  -1216 !   Tsa91
!CH2CHCH3+O  =  ch3chco+H+H             5.0E07  1.76     76 !   Tsa91
CH2CHCH3+O  =  CH2CHC-H2+OH            5.2E11  0.70   5884 !   Tsa91
CH2CHCH3+O  =  C-HCHCH3+OH             1.2E11  0.70   8960 !   Tsa91
CH2CHCH3+O  =  CH2C-CH3+OH             6.0E10  0.70   7630 !   Tsa91
CH2CHCH3+OH  =  CH2CHC-H2+H2O          3.1E06  2.00   -298 !   Tsa91
CH2CHCH3+OH  =  CH2C-CH3+H2O           1.1E06  2.00   1451 !   Tsa91
CH2CHCH3+OH  =  C-HCHCH3+H2O           2.1E06  2.00   2778 !   Tsa91
CH2CHCH3+HO2  =  CH2CHC-H2+H2O2        9.6E03  2.60  13909 !   Tsa91
CH2CHCH3+O2  =  CH2CHC-H2+HO2          2.0E13  0.00  47600 !   Tsa91, est
CH2CHCH3+O2  =  C-HCHCH3+HO2           2.0E13  0.00  47600 !   Tsa91, est
CH2CHCH3+O2  =  CH2C-CH3+HO2           2.0E13  0.00  47600 !   Tsa91, est
!
! *** C3H5 Subset ***
!
CH2CHC-H2+H  =  H2CCCH2+H2             5.0E13  0.00      0 !   Mar96
CH2CHC-H2+H  =  CH2CHCH3               1.9E26 -3.60   5470 !   Mar96
CH2CHC-H2+O  =  CH2CHCHO+H             1.8E14  0.00      0 !   Mar96
CH2CHC-H2+OH  =  H2CCCH2+H2O           1.0E13  0.00      0 !   Tsa91
CH2CHC-H2+HO2  =  CH2CHCHO+H+OH        1.0E13  0.00      0 !   Tsa91
CH2CHC-H2+O2  =  CH2CHCHO+OH           1.8E13 -0.41  22860 !   Mar96
CH2CHC-H2+O2  =  H2CCCH2+HO2           5.0E15 -1.40  22430 !   Mar96
CH2CHC-H2+O2  =  CH2HCO+CH2O           1.1E10  0.34  12840 !   Mar96
CH2CHC-H2+O2  =  C2H2+CH2O+OH          2.8E25 -4.80  15470 !   Mar96
C-HCHCH3+H  =  CH2CHC-H2+H             1.0E14  0.00      0 !   Mar96
C-HCHCH3+H  =  H3CCCH+H2               2.0E13  0.00      0 !   Mar96
!C-HCHCH3+O  =  ch3chco+H               1.0E14  0.00      0 !   Mar96
C-HCHCH3+OH  =  H3CCCH+H2O             1.0E13  0.00      0 !   Mar96
C-HCHCH3+O2  =  CH3HCO+HCO             1.1E23 -3.29   3900 !   Mar96
!C-HCHCH3+O2  =  ch3chco+H+O            1.6E15 -0.78   3135 !   Mar96
CH2C-CH3+H  =  CH2CHC-H2+H             1.0E14  0.00      0 !   Mar96
CH2C-CH3+H  =  H3CCCH+H2               4.0E13  0.00      0 !   Mar96
CH2C-CH3+O  =  CH2CO+CH3               1.0E14  0.00      0 !   Mar96
CH2C-CH3+OH  =  H3CCCH+H2O             2.0E13  0.00      0 !   Mar96
CH2C-CH3+O2  =  CH3CO+CH2O             1.1E22 -3.29   3900 !   Mar96
!
! *** C3H4 Subset ***
!
H2CCCH2  =  H3CCCH                     2.2E14  0.00  68100 !   Mar96
H2CCCH2+H  =  H3CCCH+H                 1.0E13  0.00   5000 !   Pau96
H2CCCH2+H(+M)  =  CH2CHC-H2(+M)        1.2E11  0.69   3000 !   Mar96
    LOW/5.6E33 -5.0   4450./
    TROE/0.7086 134 1784 5740/
H2CCCH2+H(+M)  =  CH2C-CH3(+M)         8.5E12  0.00   2000 !   Mar96  
    LOW/1.1E34 -5.0   4450./
    TROE/0.7086 134 1784 5740/
H2CCCH2+O  =  C2H4+CO                 1.3E07  1.88    180 !   Mar96
H2CCCH2+H  =  H2CCCH+H2               3.0E07  2.00   5000 !   Pau96
H2CCCH2+OH  =  H2CCCH+H2O             2.0E07  2.00   1000 !   Pau96
H3CCCH+H  =  H2CCCH+H2                3.0E07  2.00   5000 !   Pau96
H3CCCH+H  =  CH3+C2H2                 1.0E14  0.00   4000 !   Pau96
H3CCCH+H(+M)  =  CH2C-CH3(+M)         6.5E12  0.00   2000 !   Mar96
    LOW/8.5E39 -7.27   6580./
    TROE/0.7086 134 1784 5740/
H3CCCH+OH  =  H2CCCH+H2O              2.0E07  2.00   1000 !   Pau96
H3CCCH+O  =  C2H4+CO                  1.5E13  0.00   2100 !   Mar96
!
! *** C3H4O Subset ***
!
CH2CHCHO+H  =  C2H4+HCO                2.0E13  0.00   3500 !   Mar96 est
CH2CHCHO+H  =  CH2CHC-O+H2             4.0E13  0.00   4200 !   Mar96 est
CH2CHCHO+O  =  CH2CHC-O+OH             7.2E12  0.00   1970 !   Mar96 est
CH2CHCHO+O  =  CH2CO+HCO+H             5.0E07  1.76     76 !   Mar96 est
!CH2CHCHO+O  =  CH2HCO+HCO              1.0E13  0.00      0 !   Boz98
CH2CHCHO+OH  =  CH2CHC-O+H2O           1.0E13  0.00      0 !   Mar96 est
CH2CHCHO+O2  =  CH2CHC-O+HO2           3.0E13  0.00  36000 !   Mar96 est
! MA changes (2)  (13/8)
!CH2CHCHO+HO2  =  CH2CHC-O+H2O2         3.0E12  0.00  13000 !   est
! est. analogy to ch2o
!CH2CHCHO+M = CH2CHC-O+H+M             3.3E16  0.0   81000 !   est
! H2O/5.0/
! est. analogy to ch2o
!
! *** C3H3 Subset ***
!
!H2CCCH+H(+M)  =  H2CCCH2(+M)          1.0E17 -0.82    315 !   Pau96        ! 298
!    LOW/3.5E55 -4.88  2225/
!    TROE/0.7086 134 1784 5740/
!    H2/2/ CO/2/ CO2/3/  H2O/8.6/
!H2CCCH+H(+M)  =  H3CCCH(+M)           1.0E17 -0.82    315 !   Pau96        ! 299
!    LOW/3.5E55 -4.88  2225/
!    TROE/0.7086 134 1784 5740/
!    H2/2/ CO/2/ CO2/3/  H2O/8.6/
H2CCCH+H(+M)=H2CCCH2(+M)    1.66E+15    -0.37   0   ! Siva 2005
    LOW / 3.36E+45 -8.52  6293.0  /             !
    H2O/5.0/ H2/2.0/ CO2/3.0/ CO/2.0/ O2/2.0/ C2H2/2.0/             
H2CCCH+H(+M)=H3CCCH(+M)     1.66E+15    -0.37   0   ! Siva 2005
    LOW / 8.78E+45 -8.9   7974.0 /              !
    H2O /5.0/ H2/2.0/ CO2/3.0/ CO/2.0/ O2/2.0/ C2H2/2.0/                
H2CCCH+H  =  C3H2+H2                  5.0E13   0.00   1000 !   Pau96
!H2CCCH+O  =  CH2O+C2H                 1.4E14   0.00      0 !   Pau96       ! 301
H2CCCH+O  =  CH2O+C2H                 2.5E14   0.00      0 !   Pau96       ! 301
H2CCCH+OH  =  C3H2+H2O                2.0E13   0.00      0 !   Pau96
H2CCCH+O2  =  CH2CO+HCO               3.0E10   0.00   2868 !   Pau96
H2CCCH+H2CCCH  =  C6H5+H              1.0E13   0.00      0 !   Pau96
!
! *** C3H3O Subset ***
!
CH2CHC-O  =  C2H3+CO                   1.0E14   0.00  34000 !   Mar96 est
CH2CHC-O+O  =  C2H3+CO2                1.0E14   0.00      0 !   Mar96 est
CH2CHC-O+O2  = CH2HCO+CO2              5.4E20  -2.72   7000 !   Boz98 qrrk
!
! *** C3H2 Subset ***
!
C3H2+O  =  C2H2+CO                     1.0E14   0.00      0 !   Pau96
C3H2+OH  =  C2H2+HCO                   5.0E13   0.00      0 !   Pau96
C3H2+O2  =  HCCO+CO+H                  2.0E12   0.00   1000 !   Pau96
C3H2+CH3  =  CH2CHCCH+H                2.0E13   0.00      0 !   Pau96
C3H2+HCCO  =  HCCHCCH+CO               3.0E13   0.00      0 !   Pau96
C3H2+H2CCCH  =  C6H4+H                 1.0E13   0.00      0 !   Pau96
!
! *** C2HO4 Reactions ***
!
O2CCHOO-  =  HCOO+CO2                  3.0E13   0.00   4000 !   Boz98 est
!
!
!
  !
  ! *******************************************************
  ! *   HC subset of reburn mechanism, CF submitted 4/97  *
  ! *******************************************************
  !