"""


 #==========================================================================================#
  #              #
  #    Optimized reaction mechanism rate rules for ignition of normal alkanes    #
  #              #
  #               Liming Cai(a), Heinz Pitsch(a), Samah Y. Mohamed(b),      #
  #               Venkat Raman(c), John Bugler(d), Henry Curran(d), S. Mani Sarathy(b)       #
  #              #
  #             (a) Institute for Combustion Technology,                #
  #   RWTH Aachen University, 52056 Aachen, Germany         #
  #              #
  #          (b) Clean Combustion Research Center, King Abdullah University of Science       #
  #        and Technology, Thuwal 23955-6900, Saudi Arabia                      #
  #              #
  #       (c) Department of Aerospace Engineering,         #
  #    University of Michigan, Ann Arbor 48109, USA        #
  #              #
  #                 (d) Combustion Chemistry Centre,         #
  #     National University of Ireland, Galway, Ireland        #
  #              #
  #     lcai@itv.rwth-aachen.de          #
  #              #
  #==========================================================================================#

"""

units(length='cm', time='s', quantity='mol', act_energy='cal/mol')

ideal_gas(name='gas',
          elements="N Ar He H O C",
          species="""N2            H             O2            O
                     OH            H2            H2O           HO2
                     H2O2          CO            CO2           HCO
                     CH3           CH4           CH2O          HOCH2O
                     HOCHO         CH3O          CH3OH         CH2
                     CH2GSG        CH3O2         CH3O2H        C2H6
                     C2H5          C2H4          C2H5O2        C2H5O2H
                     C2H3          CH3CHO        C2H5O         C2H3O1X2
                     CH3CO         CH2CHO        CH2CO         HCCO
                     C2H2          C2H3CHO       C2H3CO        NXC3H7
                     C3H5XA        C3H6          NXC3H7O2      C3H5O
                     C3H6OOH1X2    PXC4H9        SXC4H9        PXC4H9O2
                     C4H8X1        C4H8X2        C4H71X3       C4H71X4
                     C4H6          C4H7O         C4H8O1X3      C4H8OOH1X3
                     C4H8OOH1X3O2  NC4KET13      C2H5COCH2     C5H11X1
                     C5H10X1       C5H91X3       C5H91X5       C5H11O2X1
                     C5H10OOH1X4   C5H10O1X4     C6H13X1       C6H13O2X1
                     C6H12X1       C6H111X3      C6H111X6      C6H12OOH1X4
                     C6H12O1X4     NXC3H7COCH2   C12H25X1      NXC12H26
                     C12H25X2      C12H25X3      C12H25X4      C12H25X5
                     C12H25X6      C10H21X1      C9H19X1       C8H17X1
                     C7H15X1       C10H21X5      C9H19X5       C8H17X4
                     C7H15X3       C10H20X1      C9H18X1       C7H14X1
                     C8H16X1       C12H23        C10H19        C9H17
                     C8H15         C7H131X6      C7H131X7      NXC5H11CHO
                     C12H25O2X1    C12H25O2X2    C12H25O2X3    C12H25O2X4
                     C12H25O2X5    C12H25O2X6    C9H19O2X5     C8H17O2X4
                     C7H15O2X3     C12OOH1X4     C12OOH2X4     C12OOH3X5
                     C12OOH3X6     C12OOH4X2     C12OOH5X3     C12OOH5X7
                     C12OOH6X3     C12OOH6X8     C9OOH5X3      C8OOH4X2
                     C7H14OOH3X5   C12O2X4       C12O3X5       C12O5X7
                     C9O3X5        C8O2X4        C12O1X4       C12O3X6
                     C7H14O3X5     NXC7H15CHO    C12OOH3X5O2   C12OOH3X6O2
                     C12OOH5X7O2   C12KET3X5     C12KET5X7     NXC7H15CO
                     NXC4H9COCH2   NXC5H11CO     C5H11COCH2    C12POOH36X4
                     C12H233X6OOH  AR            O3            N
                     NO            NO2           N2O           HNO
                     HONO          C12H25O""",
          reactions='all',
          transport='Mix',
          initial_state=state(temperature=300.0, pressure=OneAtm))

#-------------------------------------------------------------------------------
# Species data
#-------------------------------------------------------------------------------

species(name='N2',
        atoms='N:2',
        thermo=(NASA([300.00, 1000.00],
                     [ 3.29867700E+00,  1.40824000E-03, -3.96322200E-06,
                       5.64151500E-09, -2.44485500E-12, -1.02090000E+03,
                       3.95037200E+00]),
                NASA([1000.00, 5000.00],
                     [ 2.92664000E+00,  1.48797700E-03, -5.68476100E-07,
                       1.00970400E-10, -6.75335100E-15, -9.22797700E+02,
                       5.98052800E+00])),
        transport=gas_transport(geom='linear',
                                diam=3.621,
                                well_depth=97.53,
                                polar=1.76,
                                rot_relax=4.0),
        note='000000')

species(name='H',
        atoms='H:1',
        thermo=(NASA([300.00, 1000.00],
                     [ 2.50000000E+00,  0.00000000E+00,  0.00000000E+00,
                       0.00000000E+00,  0.00000000E+00,  2.54716300E+04,
                      -4.60117600E-01]),
                NASA([1000.00, 5000.00],
                     [ 2.50000000E+00,  0.00000000E+00,  0.00000000E+00,
                       0.00000000E+00,  0.00000000E+00,  2.54716300E+04,
                      -4.60117600E-01])),
        transport=gas_transport(geom='atom',
                                diam=2.05,
                                well_depth=145.0),
        note='000000')

species(name='O2',
        atoms='O:2',
        thermo=(NASA([300.00, 1000.00],
                     [ 3.21293600E+00,  1.12748600E-03, -5.75615000E-07,
                       1.31387700E-09, -8.76855400E-13, -1.00524900E+03,
                       6.03473800E+00]),
                NASA([1000.00, 5000.00],
                     [ 3.69757800E+00,  6.13519700E-04, -1.25884200E-07,
                       1.77528100E-11, -1.13643500E-15, -1.23393000E+03,
                       3.18916600E+00])),
        transport=gas_transport(geom='linear',
                                diam=3.458,
                                well_depth=107.4,
                                polar=1.6,
                                rot_relax=3.8),
        note='000000')

species(name='O',
        atoms='O:1',
        thermo=(NASA([300.00, 1000.00],
                     [ 2.94642900E+00, -1.63816600E-03,  2.42103200E-06,
                      -1.60284300E-09,  3.89069600E-13,  2.91476400E+04,
                       2.96399500E+00]),
                NASA([1000.00, 5000.00],
                     [ 2.54206000E+00, -2.75506200E-05, -3.10280300E-09,
                       4.55106700E-12, -4.36805200E-16,  2.92308000E+04,
                       4.92030800E+00])),
        transport=gas_transport(geom='atom',
                                diam=2.75,
                                well_depth=80.0),
        note='000000')

species(name='OH',
        atoms='H:1 O:1',
        thermo=(NASA([300.00, 1000.00],
                     [ 4.12530561E+00, -3.22544939E-03,  6.52764691E-06,
                      -5.79853643E-09,  2.06237379E-12,  3.38153812E+03,
                      -6.90432960E-01]),
                NASA([1000.00, 5000.00],
                     [ 2.86472886E+00,  1.05650448E-03, -2.59082758E-07,
                       3.05218674E-11, -1.33195876E-15,  3.71885774E+03,
                       5.70164073E+00])),
        transport=gas_transport(geom='linear',
                                diam=2.75,
                                well_depth=80.0),
        note='000000')

species(name='H2',
        atoms='H:2',
        thermo=(NASA([300.00, 1000.00],
                     [ 3.29812400E+00,  8.24944200E-04, -8.14301500E-07,
                      -9.47543400E-11,  4.13487200E-13, -1.01252100E+03,
                      -3.29409400E+00]),
                NASA([1000.00, 5000.00],
                     [ 2.99142300E+00,  7.00064400E-04, -5.63382900E-08,
                      -9.23157800E-12,  1.58275200E-15, -8.35034000E+02,
                      -1.35511000E+00])),
        transport=gas_transport(geom='linear',
                                diam=2.92,
                                well_depth=38.0,
                                polar=0.79,
                                rot_relax=280.0),
        note='000000')

species(name='H2O',
        atoms='H:2 O:1',
        thermo=(NASA([300.00, 1000.00],
                     [ 3.38684200E+00,  3.47498200E-03, -6.35469600E-06,
                       6.96858100E-09, -2.50658800E-12, -3.02081100E+04,
                       2.59023300E+00]),
                NASA([1000.00, 5000.00],
                     [ 2.67214600E+00,  3.05629300E-03, -8.73026000E-07,
                       1.20099600E-10, -6.39161800E-15, -2.98992100E+04,
                       6.86281700E+00])),
        transport=gas_transport(geom='nonlinear',
                                diam=2.605,
                                well_depth=572.4,
                                dipole=1.844,
                                rot_relax=4.0),
        note='000000')

species(name='HO2',
        atoms='H:1 O:2',
        thermo=(NASA([300.00, 1000.00],
                     [ 4.30179801E+00, -4.74912051E-03,  2.11582891E-05,
                      -2.42763894E-08,  9.29225124E-12,  2.94808040E+02,
                       3.71666245E+00]),
                NASA([1000.00, 5000.00],
                     [ 4.01721090E+00,  2.23982013E-03, -6.33658150E-07,
                       1.14246370E-10, -1.07908535E-14,  1.11856713E+02,
                       3.78510215E+00])),
        transport=gas_transport(geom='nonlinear',
                                diam=3.458,
                                well_depth=107.4,
                                rot_relax=1.0),
        note='000000')

species(name='H2O2',
        atoms='H:2 O:2',
        thermo=(NASA([300.00, 1000.00],
                     [ 3.38875400E+00,  6.56922600E-03, -1.48501300E-07,
                      -4.62580600E-09,  2.47151500E-12, -1.76631500E+04,
                       6.78536300E+00]),
                NASA([1000.00, 5000.00],
                     [ 4.57316700E+00,  4.33613600E-03, -1.47468900E-06,
                       2.34890400E-10, -1.43165400E-14, -1.80069600E+04,
                       5.01137000E-01])),
        transport=gas_transport(geom='nonlinear',
                                diam=3.458,
                                well_depth=107.4,
                                rot_relax=3.8),
        note='000000')

species(name='CO',
        atoms='C:1 O:1',
        thermo=(NASA([300.00, 1000.00],
                     [ 3.19036352E+00,  8.94419972E-04, -3.24927563E-08,
                      -1.04599967E-10,  2.41965693E-14, -1.42869054E+04,
                       5.33277914E+00]),
                NASA([1000.00, 5000.00],
                     [ 3.11216890E+00,  1.15948283E-03, -3.38480362E-07,
                       4.41403098E-11, -2.12862228E-15, -1.42718539E+04,
                       5.71725177E+00])),
        transport=gas_transport(geom='linear',
                                diam=3.65,
                                well_depth=98.1,
                                polar=1.95,
                                rot_relax=1.8),
        note='000000')

species(name='CO2',
        atoms='C:1 O:2',
        thermo=(NASA([300.00, 1000.00],
                     [ 2.57930490E+00,  8.24684987E-03, -6.42716047E-06,
                       2.54637024E-09, -4.12030443E-13, -4.84162830E+04,
                       8.81141041E+00]),
                NASA([1000.00, 5000.00],
                     [ 3.60285631E+00,  4.89154832E-03, -2.37518115E-06,
                       4.14110619E-10,  0.00000000E+00, -4.86621846E+04,
                       3.67802527E+00])),
        transport=gas_transport(geom='linear',
                                diam=3.763,
                                well_depth=244.0,
                                polar=2.65,
                                rot_relax=2.1),
        note='000000')

species(name='HCO',
        atoms='C:1 H:1 O:1',
        thermo=(NASA([300.00, 1000.00],
                     [ 3.81049965E+00,  8.13269825E-04,  3.13164701E-06,
                      -2.39478268E-09,  5.06894554E-13,  4.03859901E+03,
                       4.94843165E+00]),
                NASA([1000.00, 5000.00],
                     [ 2.26355800E+00,  5.69068757E-03, -2.48925808E-06,
                       4.02540871E-10,  0.00000000E+00,  4.42251484E+03,
                       1.27616432E+01])),
        transport=gas_transport(geom='nonlinear',
                                diam=3.59,
                                well_depth=498.0),
        note='000000')

species(name='CH3',
        atoms='C:1 H:3',
        thermo=(NASA([300.00, 1000.00],
                     [ 3.43858162E+00,  4.07752664E-03,  3.19830994E-07,
                      -9.47669390E-10,  2.21828166E-13,  1.63164018E+04,
                       2.52807406E+00]),
                NASA([1000.00, 5000.00],
                     [ 2.69747656E+00,  6.36626482E-03, -2.25615837E-06,
                       3.02515012E-10,  0.00000000E+00,  1.65036204E+04,
                       6.28543183E+00])),
        transport=gas_transport(geom='linear',
                                diam=3.8,
                                well_depth=144.0),
        note='000000')

species(name='CH4',
        atoms='C:1 H:4',
        thermo=(NASA([300.00, 1000.00],
                     [ 3.72113020E+00, -2.50293289E-03,  1.90246534E-05,
                      -1.46871253E-08,  3.43791152E-12, -1.01424099E+04,
                       1.22776596E+00]),
                NASA([1000.00, 5000.00],
                     [-3.02514093E+00,  2.07639091E-02, -1.07081288E-05,
                       1.96299750E-09,  0.00000000E+00, -8.59358078E+03,
                       3.47383420E+01])),
        transport=gas_transport(geom='nonlinear',
                                diam=3.746,
                                well_depth=141.4,
                                polar=2.6,
                                rot_relax=13.0),
        note='000000')

species(name='CH2O',
        atoms='C:1 H:2 O:1',
        thermo=(NASA([300.00, 1000.00],
                     [ 3.00754197E+00,  3.04729496E-03,  5.25109246E-06,
                      -5.12019281E-09,  1.27133795E-12, -1.41188397E+04,
                       8.10120233E+00]),
                NASA([1000.00, 5000.00],
                     [ 6.08466491E-01,  1.13972253E-02, -5.52287970E-06,
                       9.74262457E-10,  0.00000000E+00, -1.35727516E+04,
                       1.99968338E+01])),
        transport=gas_transport(geom='nonlinear',
                                diam=3.59,
                                well_depth=498.0,
                                rot_relax=2.0),
        note='000000')

species(name='HOCH2O',
        atoms='C:1 H:3 O:2',
        thermo=(NASA([300.00, 1000.00],
                     [ 4.11183145E+00,  7.53850697E-03,  3.77337370E-06,
                      -5.38746005E-09,  1.45615887E-12, -2.28023001E+04,
                       7.46807254E+00]),
                NASA([1000.00, 5000.00],
                     [ 1.72976110E+00,  1.61486804E-02, -7.75692098E-06,
                       1.37089042E-09,  0.00000000E+00, -2.22802407E+04,
                       1.91890617E+01])),
        transport=gas_transport(geom='nonlinear',
                                diam=4.398,
                                well_depth=346.703),
        note='000000')

species(name='HOCHO',
        atoms='C:1 H:2 O:2',
        thermo=(NASA([300.00, 1000.00],
                     [ 1.28069021E+00,  1.52887758E-02, -5.64150476E-06,
                      -1.22968799E-09,  8.14273233E-13, -4.64347524E+04,
                       1.83142081E+01]),
                NASA([1000.00, 5000.00],
                     [ 1.24573687E+00,  1.67242062E-02, -9.22177878E-06,
                       1.76438220E-09,  0.00000000E+00, -4.65097525E+04,
                       1.81159087E+01])),
        transport=gas_transport(geom='nonlinear',
                                diam=4.366,
                                well_depth=342.374),
        note='000000')

species(name='CH3O',
        atoms='C:1 H:3 O:1',
        thermo=(NASA([300.00, 1000.00],
                     [ 2.23058023E+00,  8.53178586E-03,  1.02166624E-06,
                      -3.41046916E-09,  9.94691038E-13,  9.45939708E+02,
                       1.28377569E+01]),
                NASA([1000.00, 5000.00],
                     [ 6.53747511E-01,  1.42780303E-02, -6.73501546E-06,
                       1.17149189E-09,  0.00000000E+00,  1.28865873E+03,
                       2.05835803E+01])),
        transport=gas_transport(geom='nonlinear',
                                diam=3.69,
                                well_depth=417.0,
                                dipole=1.7,
                                rot_relax=2.0),
        note='000000')

species(name='CH3OH',
        atoms='C:1 H:4 O:1',
        thermo=(NASA([300.00, 1000.00],
                     [ 1.82176844E+00,  1.23326420E-02, -2.73742177E-06,
                      -1.07387318E-09,  4.23644837E-13, -2.52222207E+04,
                       1.48104300E+01]),
                NASA([1000.00, 5000.00],
                     [ 5.93278257E-01,  1.62400515E-02, -7.29041502E-06,
                       1.22384561E-09,  0.00000000E+00, -2.49194716E+04,
                       2.10056316E+01])),
        transport=gas_transport(geom='nonlinear',
                                diam=3.626,
                                well_depth=481.8,
                                rot_relax=1.0),
        note='000000')

species(name='CH2',
        atoms='C:1 H:2',
        thermo=(NASA([300.00, 1000.00],
                     [ 3.76223700E+00,  1.15981900E-03,  2.48958500E-07,
                       8.80083600E-10, -7.33243500E-13,  4.53679100E+04,
                       1.71257800E+00]),
                NASA([1000.00, 5000.00],
                     [ 3.63640800E+00,  1.93305700E-03, -1.68701600E-07,
                      -1.00989900E-10,  1.80825600E-14,  4.53413400E+04,
                       2.15656100E+00])),
        transport=gas_transport(geom='linear',
                                diam=3.8,
                                well_depth=144.0),
        note='000000')

species(name='CH2GSG',
        atoms='C:1 H:2',
        thermo=(NASA([300.00, 1000.00],
                     [ 3.97126500E+00, -1.69908900E-04,  1.02536900E-06,
                       2.49255100E-09, -1.98126600E-12,  4.98936800E+04,
                       5.75320700E-02]),
                NASA([1000.00, 5000.00],
                     [ 3.55288900E+00,  2.06678800E-03, -1.91411600E-07,
                      -1.10467300E-10,  2.02135000E-14,  4.98497500E+04,
                       1.68657000E+00])),
        transport=gas_transport(geom='linear',
                                diam=3.8,
                                well_depth=144.0),
        note='000000')

species(name='CH3O2',
        atoms='C:1 H:3 O:2',
        thermo=(NASA([300.00, 1000.00],
                     [ 3.80497590E+00,  9.80784660E-03, -3.90940624E-07,
                      -2.23072602E-09,  6.43310820E-13, -4.55625796E+02,
                       7.81789100E+00]),
                NASA([1000.00, 5000.00],
                     [ 2.06598098E+00,  1.53864276E-02, -6.97442864E-06,
                       1.15648676E-09,  0.00000000E+00, -2.95663888E+01,
                       1.65753622E+01])),
        transport=gas_transport(geom='nonlinear',
                                diam=4.398,
                                well_depth=346.703),
        note='000000')

species(name='CH3O2H',
        atoms='C:1 H:4 O:2',
        thermo=(NASA([300.00, 1000.00],
                     [ 2.83880024E+00,  1.86096249E-02, -8.48165412E-06,
                       1.00387451E-09,  1.71612429E-13, -1.74033753E+04,
                       1.16092433E+01]),
                NASA([1000.00, 5000.00],
                     [ 2.86378786E+00,  1.88104318E-02, -9.12984329E-06,
                       1.59788155E-09,  0.00000000E+00, -1.74268826E+04,
                       1.14048233E+01])),
        transport=gas_transport(geom='nonlinear',
                                diam=4.428,
                                well_depth=350.993),
        note='000000')

species(name='C2H6',
        atoms='C:2 H:6',
        thermo=(NASA([300.00, 1000.00],
                     [ 4.78623203E-02,  2.40569127E-02, -1.15155912E-05,
                       2.48666238E-09, -1.78343944E-13, -1.10923014E+04,
                       2.06544071E+01]),
                NASA([1000.00, 5000.00],
                     [ 3.50915406E-01,  2.29412054E-02, -1.00149919E-05,
                       1.62037335E-09,  0.00000000E+00, -1.11567971E+04,
                       1.91705752E+01])),
        transport=gas_transport(geom='nonlinear',
                                diam=3.794,
                                well_depth=267.46),
        note='000000')

species(name='C2H5',
        atoms='C:2 H:5',
        thermo=(NASA([300.00, 1000.00],
                     [ 1.32730217E+00,  1.76656753E-02, -6.14926558E-06,
                      -3.01143466E-10,  4.38617775E-13,  1.34284028E+04,
                       1.71789216E+01]),
                NASA([1000.00, 5000.00],
                     [ 1.05306388E+00,  1.90883832E-02, -8.61058438E-06,
                       1.45032345E-09,  0.00000000E+00,  1.34615835E+04,
                       1.84070762E+01])),
        transport=gas_transport(geom='nonlinear',
                                diam=3.751,
                                well_depth=262.223),
        note='000000')

species(name='C2H4',
        atoms='C:2 H:4',
        thermo=(NASA([300.00, 1000.00],
                     [ 2.33879687E-01,  1.96334647E-02, -1.16833214E-05,
                       3.64246453E-09, -4.77442715E-13,  5.46489338E+03,
                       1.97084228E+01]),
                NASA([1000.00, 5000.00],
                     [ 1.54096998E+00,  1.54163352E-02, -6.69289058E-06,
                       1.08463019E-09,  0.00000000E+00,  5.14686093E+03,
                       1.31345278E+01])),
        transport=gas_transport(geom='nonlinear',
                                diam=3.708,
                                well_depth=256.908),
        note='000000')

species(name='C2H5O2',
        atoms='C:2 H:5 O:2',
        thermo=(NASA([300.00, 1000.00],
                     [ 2.58630333E+00,  2.61836362E-02, -1.68306193E-05,
                       6.08749295E-09, -9.57302040E-13, -4.58588992E+03,
                       1.50486289E+01]),
                NASA([1000.00, 5000.00],
                     [ 4.83503732E+00,  1.87162611E-02, -7.68476909E-06,
                       1.20298178E-09,  0.00000000E+00, -5.11988573E+03,
                       3.79821963E+00])),
        transport=gas_transport(geom='nonlinear',
                                diam=4.793,
                                well_depth=403.365),
        note='000000')

species(name='C2H5O2H',
        atoms='C:2 H:6 O:2',
        thermo=(NASA([300.00, 1000.00],
                     [ 1.57329011E+00,  3.52379996E-02, -2.53203993E-05,
                       9.56802476E-09, -1.48167375E-12, -2.15278368E+04,
                       1.90472032E+01]),
                NASA([1000.00, 5000.00],
                     [ 5.70203347E+00,  2.20031800E-02, -9.75531641E-06,
                       1.62734437E-09,  0.00000000E+00, -2.25386960E+04,
                      -1.74439233E+00])),
        transport=gas_transport(geom='nonlinear',
                                diam=4.819,
                                well_depth=407.213),
        note='000000')

species(name='C2H3',
        atoms='C:2 H:3',
        thermo=(NASA([300.00, 1000.00],
                     [ 1.25329724E+00,  1.56258370E-02, -1.07803879E-05,
                       4.18054634E-09, -7.01360362E-13,  3.50734773E+04,
                       1.71341661E+01]),
                NASA([1000.00, 5000.00],
                     [ 2.78055099E+00,  1.04681533E-02, -4.34542148E-06,
                       6.74649462E-10,  0.00000000E+00,  3.47162787E+04,
                       9.51776357E+00])),
        transport=gas_transport(geom='nonlinear',
                                diam=3.664,
                                well_depth=251.513),
        note='000000')

species(name='CH3CHO',
        atoms='C:2 H:4 O:1',
        thermo=(NASA([300.00, 1000.00],
                     [ 1.77060035E+00,  1.84475161E-02, -7.24138162E-06,
                       2.34364561E-10,  3.35543891E-13, -2.18078850E+04,
                       1.65023437E+01]),
                NASA([1000.00, 5000.00],
                     [ 1.61115169E+00,  1.93995970E-02, -9.00274122E-06,
                       1.53863587E-09,  0.00000000E+00, -2.17963159E+04,
                       1.71815039E+01])),
        transport=gas_transport(geom='nonlinear',
                                diam=4.304,
                                well_depth=333.779),
        note='000000')

species(name='C2H5O',
        atoms='C:2 H:5 O:1',
        thermo=(NASA([300.00, 1000.00],
                     [ 2.87429022E-01,  2.86500918E-02, -1.83857008E-05,
                       6.03096179E-09, -8.04562643E-13, -3.35717377E+03,
                       2.37513898E+01]),
                NASA([1000.00, 5000.00],
                     [ 2.72231762E+00,  2.09481644E-02, -9.48194920E-06,
                       1.58968632E-09,  0.00000000E+00, -3.95960954E+03,
                       1.14611113E+01])),
        transport=gas_transport(geom='nonlinear',
                                diam=4.336,
                                well_depth=338.188),
        note='000000')

species(name='C2H3O1X2',
        atoms='C:2 H:3 O:1',
        thermo=(NASA([300.00, 1000.00],
                     [-1.62965122E+00,  2.93455486E-02, -2.43737550E-05,
                       1.00522325E-08, -1.61259036E-12,  1.52459425E+04,
                       3.22782741E+01]),
                NASA([1000.00, 5000.00],
                     [ 3.41055375E+00,  1.35293434E-02, -6.24936923E-06,
                       1.09125656E-09,  0.00000000E+00,  1.39901041E+04,
                       6.79962828E+00])),
        transport=gas_transport(geom='nonlinear',
                                diam=4.271,
                                well_depth=329.328),
        note='000000')

species(name='CH3CO',
        atoms='C:2 H:3 O:1',
        thermo=(NASA([300.00, 1000.00],
                     [ 2.52884150E+00,  1.37152173E-02, -4.28607476E-06,
                      -7.71684278E-10,  4.83836380E-13, -3.02546532E+03,
                       1.40340315E+01]),
                NASA([1000.00, 5000.00],
                     [ 2.01002485E+00,  1.58541129E-02, -7.49125231E-06,
                       1.29725074E-09,  0.00000000E+00, -2.92817041E+03,
                       1.65128972E+01])),
        transport=gas_transport(geom='nonlinear',
                                diam=4.271,
                                well_depth=329.328),
        note='000000')

species(name='CH2CHO',
        atoms='C:2 H:3 O:1',
        thermo=(NASA([300.00, 1000.00],
                     [ 1.47616956E+00,  2.08974186E-02, -1.50123552E-05,
                       5.62967382E-09, -8.76624470E-13, -4.82050510E+02,
                       1.63756465E+01]),
                NASA([1000.00, 5000.00],
                     [ 3.70740088E+00,  1.36142073E-02, -6.26300213E-06,
                       1.05567624E-09,  0.00000000E+00, -1.01995271E+03,
                       5.17689103E+00])),
        transport=gas_transport(geom='nonlinear',
                                diam=4.271,
                                well_depth=329.328),
        note='000000')

species(name='CH2CO',
        atoms='C:2 H:2 O:1',
        thermo=(NASA([300.00, 1000.00],
                     [ 2.97497100E+00,  1.21187100E-02, -2.34504600E-06,
                      -6.46668500E-09,  3.90564900E-12, -7.63263700E+03,
                       8.67355300E+00]),
                NASA([1000.00, 5000.00],
                     [ 6.03881700E+00,  5.80484000E-03, -1.92095400E-06,
                       2.79448500E-10, -1.45886800E-14, -8.58340200E+03,
                      -7.65758100E+00])),
        transport=gas_transport(geom='nonlinear',
                                diam=4.238,
                                well_depth=324.832),
        note='000000')

species(name='HCCO',
        atoms='C:2 H:1 O:1',
        thermo=(NASA([300.00, 1000.00],
                     [ 5.04796500E+00,  4.45347800E-03,  2.26828300E-07,
                      -1.48209500E-09,  2.25074200E-13,  1.96589200E+04,
                       4.81843900E-01]),
                NASA([1000.00, 5000.00],
                     [ 6.75807300E+00,  2.00040000E-03, -2.02760700E-07,
                      -1.04113200E-10,  1.96516500E-14,  1.90151300E+04,
                      -9.07126200E+00])),
        transport=gas_transport(geom='nonlinear',
                                diam=4.204,
                                well_depth=320.292),
        note='000000')

species(name='C2H2',
        atoms='C:2 H:2',
        thermo=(NASA([300.00, 1000.00],
                     [ 2.06742667E+00,  1.46568506E-02, -1.52947063E-05,
                       8.30965761E-09, -1.72932175E-12,  2.59578589E+04,
                       8.62758672E+00]),
                NASA([1000.00, 5000.00],
                     [ 5.44234389E+00,  2.98512495E-03, -3.46684897E-07,
                      -7.08771083E-11,  0.00000000E+00,  2.51854000E+04,
                      -8.12661941E+00])),
        transport=gas_transport(geom='nonlinear',