"""

 ===== gasoline PRF mechanism 2.00 (#181017a) =====
       with revised ethanol & base mechanism

 fuels
   nC7H16 : n-heptane
   iC8H18 : isooctane
   C2H5OH : ethanol

"""

units(length='cm', time='s', quantity='mol', act_energy='cal/mol')

ideal_gas(name='gas',
          elements="H He C N O Ar",
          species="""nC7H16        iC8H18        nC7H15a       nC7H15b
                     nC7H15c       nC7H15d       C6H13a        C5H11a
                     nC3H7         nC4H9         iC8H17a       iC8H17b
                     iC8H17c       iC8H17d       C7H15a        tC4H9
                     iC4H9         C5H11b        iC3H7         nC7H15OOa
                     nC7H15Oa      C3H6          nC7H15OOb     nC7H15Ob
                     C6H12a        n1C4H8        nC7H15OOc     nC7H15Oc
                     C5H10a        nC7H15OOd     nC7H15Od      C6H13b
                     C6H13c        C6H13OOa      C6H13Oa       C5H11c
                     C5H11OOa      C5H11Oa       nC3H7OO       nC3H7O
                     nC4H9OO       nC4H9O        C7H14a        iC4H8
                     iC8H17OOa     iC8H17Oa      C7H14b        C7H14c
                     iC8H17OOb     iC8H17Ob      iC8H17OOc     iC8H17Oc
                     C7H14d        iC8H17OOd     iC8H17Od      C7H15OOa
                     C7H15Oa       tC4H9OO       tC4H9O        iC4H9OO
                     iC4H9O        C5H11OOb      C5H11Ob       iC3H7OO
                     iC3H7O        C7H14e        C7H14OOHa     C7H14OOHb
                     C7H14OOHc     C7H14OOHd     nC7H15OOHa    aC3H5
                     C7H14f        C7H14OOHe     C7H14OOHf     C7H14OOHg
                     C7H14OOHh     C7H14OOHi     nC7H15OOHb    C5H11CHOa
                     aC6H11a       nC4H7a        C7H14g        C7H14OOHj
                     C7H14OOHk     C7H14OOHl     C7H14OOHm     C7H14OOHn
                     C7H14OOHo     nC7H15OOHc    C4H9CHOa      C2H5CHO
                     aC5H9a        C7H14OOHp     C7H14OOHq     C7H14OOHr
                     nC7H15OOHd    nC3H7CHO      C6H13OOb      C6H13Ob
                     C6H13OOc      C6H13Oc       C6H12OOHa     C6H12OOHb
                     C6H12OOHc     C6H12OOHd     C6H13OOHa     C5H11OOc
                     C5H11Oc       C5H10OOHa     C5H10OOHb     C5H10OOHc
                     C5H10OOHd     C5H11OOHa     C3H6OOHab     C3H6OOHac
                     nC3H7OOH      C4H8OOHab     C4H8OOHac     C4H8OOHad
                     nC4H9OOH      aC7H13a       C6H13d        iC4H7a
                     C8H16OOHa     C8H16OOHb     C8H16OOHc     C8H16OOHd
                     iC8H17OOHa    aC7H13b       CH3CHCHO      aC7H13c
                     iC3H6vCHO     C8H16a        C8H16OOHe     C8H16OOHf
                     C8H16OOHg     iC8H17OOHb    C4H9CHOb      iC3H7CHO
                     C8H16b        C8H16OOHh     C8H16OOHi     C8H16OOHj
                     iC8H17OOHc    C6H14COa      CH3COCH3      C6H13e
                     C8H16OOHk     C8H16OOHl     C8H16OOHm     C8H16OOHn
                     iC8H17OOHd    C7H15b        C7H14OOHs     C7H14OOHt
                     C7H14OOHu     C7H14OOHv     C7H15OOHa     C5H12COa
                     C4H8OOHti     tC4H9OOH      C4H8OOHit     C4H8OOHii
                     iC4H9OOH      C5H10OOHe     C5H11OOHb     C3H6OOHba
                     iC3H7OOH      aC7H13d       C7H14cyOa     HOOC7H14OOa
                     C7H14cyOb     HOOC7H14OOb   C7H14cyOc     HOOC7H14OOc
                     C7H14cyOd     HOOC7H14OOd   aC7H13e       C6H11Oa
                     C7H14cyOe     HOOC7H14OOe   C7H14cyOf     HOOC7H14OOf
                     C7H14cyOg     HOOC7H14OOg   C7H14cyOh     HOOC7H14OOh
                     HOOC7H14OOi   C5H11COa      C5H9Oa        C7H14cyOi
                     HOOC7H14OOj   C7H14cyOj     HOOC7H14OOk   HOOC7H14OOl
                     HOOC7H14OOm   HOOC7H14OOn   HOOC7H14OOo   C4H9COa
                     C2H5CO        HOOC7H14OOp   HOOC7H14OOq   HOOC7H14OOr
                     nC3H7CO       C3H6vCHO      C6H12b        C6H12c
                     C6H12OOHe     C6H12OOHf     C6H12OOHg     C6H12OOHh
                     C6H12OOHi     C6H13OOHb     C6H12OOHj     C6H12OOHk
                     C6H12OOHl     C6H12OOHm     C6H12OOHn     C6H13OOHc
                     C6H12cyOa     HOOC6H12OOa   C6H12cyOb     HOOC6H12OOb
                     C6H12cyOc     HOOC6H12OOc   C6H12cyOd     HOOC6H12OOd
                     C5H10b        C5H10OOHf     C5H10OOHg     C5H10OOHh
                     C5H10OOHi     C5H11OOHc     C5H10cyOa     HOOC5H10OOa
                     C5H10cyOb     HOOC5H10OOb   C5H10cyOc     HOOC5H10OOc
                     C5H10cyOd     HOOC5H10OOd   C3H6cyOab     HOOC3H6OOab
                     C3H6cyOac     HOOC3H6OOac   C4H8cyOab     HOOC4H8OOab
                     C4H8cyOac     HOOC4H8OOac   C4H8cyOad     HOOC4H8OOad
                     CH3COCH2      C6H13OOd      C6H13Od       C8H16cyOa
                     HOOC8H16OOa   C8H16cyOb     HOOC8H16OOb   C8H16cyOc
                     HOOC8H16OOc   C8H16cyOd     HOOC8H16OOd   CH3CHCO
                     iC2H6CCO      aC8H15a       HOOC8H16OOe   C8H16cyOe
                     HOOC8H16OOf   C8H16cyOf     HOOC8H16OOg   C4H9COb
                     iC3H7CO       HOOC8H16OOh   HOOC8H16OOi   C8H16cyOg
                     HOOC8H16OOj   C6H13vCOa     C6H13vCOb     C5H11COb
                     C6H13f        C6H13OOe      C6H13Oe       HOOC8H16OOk
                     HOOC8H16OOl   HOOC8H16OOm   C8H16cyOh     HOOC8H16OOn
                     C7H15OOb      C7H15Ob       C7H14cyOk     HOOC7H14OOs
                     C7H14cyOl     HOOC7H14OOt   C7H14cyOm     HOOC7H14OOu
                     C7H14cyOn     HOOC7H14OOv   C5H11vCOa     C5H11vCOb
                     C4H9COc       C4H8cyOit     HOOC4H8OOti   HOOC4H8OOit
                     C4H8cyOii     HOOC4H8OOii   C5H10cyOe     HOOC5H10OOe
                     HOOC3H6OOba   C5H12CCOa     CHOC6H12OOHa  CHOC6H12OOHb
                     C4H9vCOa      CHOC6H12OOHc  CH2CH2CHO     COC4H9a
                     CHOC6H12OOHd  C4H10CCOa     COC6H13OOHa   COC6H13OOHb
                     C2H5COCH2     COC6H13OOHc   CH2CH2COCH3   COC6H13OOHd
                     COC6H13OOHe   C3H8CCOa      C2H5CHCO      COC6H13OOHf
                     COC6H13OOHg   COC6H13OOHh   COC6H13OOHi   COC6H13OOHj
                     COC6H13OOHk   COC6H13OOHl   COC6H13OOHm   COC6H13OOHn
                     aC6H11b       C6H12cyOe     HOOC6H12OOe   C6H12cyOf
                     HOOC6H12OOf   HOOC6H12OOg   C6H12cyOg     HOOC6H12OOh
                     HOOC6H12OOi   HOOC6H12OOj   HOOC6H12OOk   C6H12cyOh
                     HOOC6H12OOl   HOOC6H12OOm   HOOC6H12OOn   CHOC5H10OOHa
                     CHOC5H10OOHb  CHOC5H10OOHc  CHOC5H10OOHd  aC5H9b
                     C5H10cyOf     HOOC5H10OOf   C5H10cyOg     HOOC5H10OOg
                     HOOC5H10OOh   HOOC5H10OOi   CHOC4H8OOHa   CHOC4H8OOHb
                     CHOC4H8OOHc   CHOC4H8OOHd   CHOC2H4OOHb   CHOC2H4OOHc
                     CHOC3H6OOHab  CHOC3H6OOHac  CHOC3H6OOHad  C6H12d
                     C6H12e        C6H12OOHo     C6H12OOHp     C6H12OOHq
                     C6H12OOHr     C6H13OOHd     C4H9CHOc      CHOC7H14OOHa
                     CHOC7H14OOHb  CHOC4H8a      iC3H6qCHO     CHOC7H14OOHc
                     CHOC7H14OOHd  COC7H15OOHa   COC7H15OOHb   COC7H15OOHc
                     C6H14CCOa     C4H10CCOb     C5H10c        C6H13OOf
                     C6H13Of       C6H12f        C6H12OOHs     C6H12OOHt
                     C6H13OOHe     CHOC7H14OOHe  CHOC7H14OOHf  CHOC7H14OOHg
                     CHOC7H14OOHh  C7H14OOHw     C7H14OOHx     C7H14OOHy
                     C7H15OOHb     C5H11CHOb     HOOC7H14OOw   C4H7a
                     CHOC6H12OOHe  HOOC7H14OOx   COC6H13OOHo   C5H12CCOb
                     HOOC7H14OOy   C3H8CCOb      CHOC3H6OOHit  CHOC3H6OOHii
                     CHOC4H8OOHe   CH3COCH2OOH   C7H13O2a      C7H13O2b
                     C7H13O2c      C7H13O2d      C7H13O2e      C7H13O2f
                     C7H13O2g      C7H13O2h      C7H13O2i      C7H13O2j
                     C7H13O2k      C7H13O2l      C7H13O2m      C7H13O2n
                     C7H13O2o      C7H13O2p      C7H13O2q      C7H13O2r
                     COC5H11OOHa   COC5H11OOHb   COC5H11OOHc   COC5H11OOHd
                     COC5H11OOHe   COC5H11OOHf   COC5H11OOHg   COC5H11OOHh
                     COC5H11OOHi   COC5H11OOHj   C6H11O2a      C6H11O2b
                     C6H11O2c      C6H11O2d      COC4H9OOHa    COC4H9OOHb
                     COC4H9OOHc    COC4H9OOHd    C5H9O2a       C5H9O2b
                     C5H9O2c       C5H9O2d       C3H5O2a       C3H5O2b
                     C4H7O2a       C4H7O2b       C4H7O2c       aC6H11c
                     aC6H11d       C5H11d        C6H12cyOi     HOOC6H12OOo
                     C6H12cyOj     HOOC6H12OOp   C6H12cyOk     HOOC6H12OOq
                     C6H12cyOl     HOOC6H12OOr   C4H8vCHOa     C8H15O2a
                     C8H15O2b      C8H15O2c      C8H15O2d      C8H15O2e
                     C8H15O2f      C8H15O2g      aC5H9c        sC4H9
                     C6H12OOHu     C6H12OOHv     C6H12OOHw     C6H13OOHf
                     C5H11e        C6H12cyOm     HOOC6H12OOs   C6H12cyOn
                     HOOC6H12OOt   C8H15O2h      C8H15O2i      C8H15O2j
                     C8H15O2k      C7H14cyOo     HOOC7H14OOz   C7H14cyOp
                     HOOC7H14OOaa  C7H14cyOq     HOOC7H14OOab  C5H10vCHOa
                     COC6H13OOHp   C7H13O2s      C7H13O2t      CHOC6H12OOHf
                     C4H7O2d       C4H7O2e       C5H9O2e       CH3COCH2O
                     C3H5OCHOa     C4H7OCHOa     C3H6qCHOa     C3H7COCHOa
                     C4H9COCHOa    COC4H9b       C4H9COCHOb    COC5H11a
                     C5H11vCOc     COC5H11b      C6H11O2e      C6H11O2f
                     C6H11O2g      C6H11O2h      C6H11O2i      C6H11O2j
                     C6H11O2k      C6H11O2l      C6H11O2m      C6H11O2n
                     C5H9O2f       C5H9O2g       C5H9O2h       C5H9O2i
                     C5H11f        C5H11OOd      C5H11Od       COC5H11OOHk
                     COC5H11OOHl   COC5H11OOHm   C4H10CCOc     COC5H11OOHn
                     C5H11COCHOa   CHOC6H12a     C6H12vCHOa    C6H13vCOc
                     C6H13vCOd     sC4H9OO       sC4H9O        C5H10d
                     C6H12cyOo     HOOC6H12OOu   HOOC6H12OOv   C6H12cyOp
                     HOOC6H12OOw   C5H11OOe      C5H11Oe       CHOC5H10OOHe
                     CHOC5H10OOHf  C3H5OCHOb     CHOC6H12b     C6H12vCHOb
                     COC6H13OOHq   COC6H13OOHr   C5H12CCOc     COC6H13OOHs
                     C7H13O2u      C4H9COCHOc    C5H11vCOd     C7H13O2v
                     C3H5OCOa      C3H4OvCHOa    C4H7OCOa      C4H6OvCHOa
                     COC3H7COa     COC4H9COa     COC4H9COb     C5H11OOf
                     C5H11Of       C5H10e        C5H10OOHj     C5H10OOHk
                     C5H10OOHl     C5H11OOHd     C6H11O2o      C6H11O2p
                     C6H11O2q      C6H11O2r      COC5H11COa    C6H13g
                     n2C4H8        C4H8OOHbc     C4H8OOHbd     C4H8OOHba
                     sC4H9OOH      CHOC5H10OOHg  CHOC5H10OOHh  CHOC5H10OOHi
                     C5H10OOHm     C5H10OOHn     C5H10OOHo     C5H11OOHe
                     C2H5COCH3     C6H11O2s      C6H11O2t      C3H5OCOb
                     C6H12OOHx     C7H13O2w      C7H13O2x      C7H13O2y
                     COC4H9COc     OCCCH3CHOa    C2H3OCHOa     OCCC2H5CHOa
                     C5H10OOHp     C5H10OOHq     C5H10OOHr     C5H10OOHs
                     C5H11OOHf     aC5H9d        C5H10cyOh     HOOC5H10OOj
                     C5H10cyOi     HOOC5H10OOk   C5H10cyOj     HOOC5H10OOl
                     COC4H9c       COC5H11c      C6H13OOg      C6H13Og
                     C4H8cyObc     HOOC4H8OObc   HOOC4H8OObd   HOOC4H8OOba
                     C6H11O2u      C6H11O2v      C6H11O2w      C5H10cyOk
                     HOOC5H10OOm   HOOC5H10OOn   C5H10cyOl     HOOC5H10OOo
                     CH3CHCOCH3    CHOCHOa       CHOC4H8b      HOOC6H12OOx
                     CH3COCHOa     OCCCH3COa     C2H3OCOa      OCCC2H5COa
                     HOOC5H10OOp   C5H10cyOm     HOOC5H10OOq   HOOC5H10OOr
                     C5H10cyOn     HOOC5H10OOs   CHOC4H8OOHf   CHOC4H8OOHg
                     CHOC4H8OOHh   C6H12g        C6H12h        C6H12OOHy
                     C6H12OOHz     C6H12OOHaa    C6H13OOHg     C4H10COa
                     COC3H7OOHbc   COC3H7OOHbd   COC3H7OOHba   C4H8vCHOb
                     HOOC5H10OOt   CHOC4H8OOHi   C3H8CCOc      COvCHOa
                     CHOC5H10OOHj  CHOCH2vCOa    C2H3CO        OCCC2H5a
                     CHOC4H8OOHj   CHOC4H8OOHk   CHOC4H8OOHl   C5H9O2j
                     C5H9O2k       C5H9O2l       aC6H11e       C6H12cyOq
                     HOOC6H12OOy   C6H12cyOr     HOOC6H12OOz   C6H12cyOs
                     HOOC6H12OOaa  C4H9vCOb      C4H7O2f       C4H7O2g
                     C4H7O2h       COC4H9OOHe    C5H9O2m       C6H11O2x
                     C2H4CCOa      C5H9O2n       C5H9O2o       C5H9O2p
                     C3H6qCHOb     HOOC6H12OOab  HOOC6H12OOac  COC5H11OOHo
                     C4H10CCOd     HOOC6H12OOad  C5H9O2q       C4H7OCHOb
                     C2H3CHO       COC5H11OOHp   CHOC5H10OOHk  C6H11O2y
                     CHOC5H10OOHl  C4H7OCOb      C4H6OvCHOb    C6H11O2z
                     C6H11O2aa     C4H9vCOc      C6H11O2ab     OCCC2H5CHOb
                     C2H5COCHOa    OCCC2H5COb    COC2H5COa     OCCC2H5b
                     He            Ar            H             H2
                     O             OH            H2O           O2
                     HO2           H2O2          N2            CH
                     CH2           CH2(S)        CH3           CH4
                     CO            HCO           CH2O          CH2OH
                     CH3O          CH3OH         CO2           HOCO
                     HOCHO         CH3OO         CH3OOH        C2H
                     C2H2          C2H3          C2H4          C2H5
                     C2H6          HCCO          CH2CO         CH3CO
                     CH2CHO        C2H4cyO       CH3CHO        C2H5O
                     pC2H4OH       sC2H4OH       C2H5OH        CH3CO2
                     C2H4OOH       C2H5OO        C2H5OOH       CH3C(O)OO
                     CH3C(O)OOH    O2C2H4OH      HOC2H4OOHa    C2H5OOa
                     C2H5OOb       HOOC2H3aOHa   C2H5O3a       CHOCH2OOHa
                     OCH2CHO       cyCOCOH       C2H3OHa       CH2OOHa
                     HOHCCOa       aC3H4         aC3H5O        v2C3H5
                     iC4H7Oa       C3H3          C3H2          C3H5CHOa
                     d13C4H6""",
          reactions='all',
          transport='Mix',
          initial_state=state(temperature=300.0, pressure=OneAtm))

#-------------------------------------------------------------------------------
# Species data
#-------------------------------------------------------------------------------

species(name='nC7H16',
        atoms='C:7 H:16',
        thermo=(NASA([300.00, 1391.00],
                     [-1.26871064E+00,  8.54348955E-02, -5.25290944E-05,
                       1.62884286E-08, -2.02214778E-12, -2.56586562E+04,
                       3.53739478E+01]),
                NASA([1391.00, 5000.00],
                     [ 2.22177923E+01,  3.47632604E-02, -1.18388528E-05,
                       1.83265875E-09, -1.06109932E-13, -3.42772591E+04,
                      -9.23217457E+01])),
        transport=gas_transport(geom='nonlinear',
                                diam=6.094,
                                well_depth=415.4,
                                rot_relax=1.0),
        note='thgen')

species(name='iC8H18',
        atoms='C:8 H:18',
        thermo=(NASA([300.00, 1397.00],
                     [-4.20184373E+00,  1.11525135E-01, -7.94018605E-05,
                       2.94327964E-08, -4.47928170E-12, -3.19113977E+04,
                       4.48981238E+01]),
                NASA([1397.00, 5000.00],
                     [ 2.70920030E+01,  3.79052142E-02, -1.29375691E-05,
                       2.00580387E-09, -1.16261109E-13, -4.27201269E+04,
                      -1.22972430E+02])),
        transport=gas_transport(geom='nonlinear',
                                diam=6.274,
                                well_depth=442.4,
                                rot_relax=1.0),
        note='thgen')

species(name='nC7H15a',
        atoms='C:7 H:15',
        thermo=(NASA([300.00, 1390.00],
                     [-4.96403973E-01,  8.08718781E-02, -5.00429940E-05,
                       1.56520975E-08, -1.96616104E-12, -1.04606801E+03,
                       3.46408403E+01]),
                NASA([1390.00, 5000.00],
                     [ 2.17912093E+01,  3.26325786E-02, -1.11158293E-05,
                       1.72102682E-09, -9.96590187E-14, -9.20792426E+03,
                      -8.64796287E+01])),
        transport=gas_transport(geom='nonlinear',
                                diam=6.094,
                                well_depth=415.4,
                                rot_relax=1.0),
        note='thgen')

species(name='nC7H15b',
        atoms='C:7 H:15',
        thermo=(NASA([300.00, 1382.00],
                     [-3.88848544E-02,  7.56801544E-02, -4.07609055E-05,
                       9.33601461E-09, -4.94482163E-13, -2.35589863E+03,
                       3.37383486E+01]),
                NASA([1382.00, 5000.00],
                     [ 2.16358383E+01,  3.23340841E-02, -1.09280566E-05,
                       1.68368616E-09, -9.71844623E-14, -1.05866176E+04,
                      -8.52122680E+01])),
        transport=gas_transport(geom='nonlinear',
                                diam=6.094,
                                well_depth=415.4,
                                rot_relax=1.0),
        note='thgen')

species(name='nC7H15c',
        atoms='C:7 H:15',
        thermo=(NASA([300.00, 1382.00],
                     [-3.88848544E-02,  7.56801544E-02, -4.07609055E-05,
                       9.33601461E-09, -4.94482163E-13, -2.35589863E+03,
                       3.37383486E+01]),
                NASA([1382.00, 5000.00],
                     [ 2.16358383E+01,  3.23340841E-02, -1.09280566E-05,
                       1.68368616E-09, -9.71844623E-14, -1.05866176E+04,
                      -8.52122680E+01])),
        transport=gas_transport(geom='nonlinear',
                                diam=6.094,
                                well_depth=415.4,
                                rot_relax=1.0),
        note='thgen')

species(name='nC7H15d',
        atoms='C:7 H:15',
        thermo=(NASA([300.00, 1382.00],
                     [-3.88848544E-02,  7.56801544E-02, -4.07609055E-05,
                       9.33601461E-09, -4.94482163E-13, -2.35589863E+03,
                       3.30443058E+01]),
                NASA([1382.00, 5000.00],
                     [ 2.16358383E+01,  3.23340841E-02, -1.09280566E-05,
                       1.68368616E-09, -9.71844623E-14, -1.05866176E+04,
                      -8.59063108E+01])),
        transport=gas_transport(geom='nonlinear',
                                diam=6.094,
                                well_depth=415.4,
                                rot_relax=1.0),
        note='thgen')

species(name='C6H13a',
        atoms='C:6 H:13',
        thermo=(NASA([300.00, 1390.00],
                     [-2.27296189E-01,  6.85114184E-02, -4.16585107E-05,
                       1.27480713E-08, -1.55959242E-12,  1.83482261E+03,
                       3.17046127E+01]),
                NASA([1390.00, 5000.00],
                     [ 1.85415608E+01,  2.83016441E-02, -9.64844848E-06,
                       1.49460059E-09, -8.65764096E-14, -5.09117773E+03,
                      -7.04589654E+01])),
        transport=gas_transport(geom='nonlinear',
                                diam=5.816,
                                well_depth=397.0,
                                rot_relax=1.0),
        note='thgen')

species(name='C5H11a',
        atoms='C:5 H:11',
        thermo=(NASA([300.00, 1390.00],
                     [ 5.79609854E-02,  5.60823625E-02, -3.31785211E-05,
                       9.79021087E-09, -1.14223950E-12,  4.71440753E+03,
                       2.86918308E+01]),
                NASA([1390.00, 5000.00],
                     [ 1.52896647E+01,  2.39755267E-02, -8.18341222E-06,
                       1.26861432E-09, -7.35224954E-14, -9.72919304E+02,
                      -5.44277267E+01])),
        transport=gas_transport(geom='nonlinear',
                                diam=5.507,
                                well_depth=378.3,
                                rot_relax=1.0),
        note='thgen')

species(name='nC3H7',
        atoms='C:3 H:7',
        thermo=(NASA([300.00, 1388.00],
                     [ 6.42348691E-01,  3.11345459E-02, -1.60372003E-05,
                       3.73687708E-09, -2.73464258E-13,  1.04720818E+04,
                       2.26094619E+01]),
                NASA([1388.00, 5000.00],
                     [ 8.82474241E+00,  1.52675665E-02, -5.22986834E-06,
                       8.12595389E-10, -4.71654156E-14,  7.24630333E+03,
                      -2.25856849E+01])),
        transport=gas_transport(geom='nonlinear',
                                diam=4.758,
                                well_depth=339.3,
                                rot_relax=1.0),
        note='thgen')

species(name='nC4H9',
        atoms='C:4 H:9',
        thermo=(NASA([300.00, 1390.00],
                     [ 3.55351766E-01,  4.35958948E-02, -2.46064842E-05,
                       6.77248651E-09, -7.11381112E-13,  7.59222528E+03,
                       2.56246477E+01]),
                NASA([1390.00, 5000.00],
                     [ 1.20446721E+01,  1.96401757E-02, -6.71463208E-06,
                       1.04199975E-09, -6.04306569E-14,  3.14204347E+03,
                      -3.84351609E+01])),
        transport=gas_transport(geom='nonlinear',
                                diam=5.16,
                                well_depth=359.1,
                                rot_relax=1.0),
        note='thgen')

species(name='iC8H17a',
        atoms='C:8 H:17',
        thermo=(NASA([300.00, 1397.00],
                     [-3.44104605E+00,  1.07009145E-01, -7.69776230E-05,
                       2.88290095E-08, -4.42938429E-12, -7.29698319E+03,
                       4.46256051E+01]),
                NASA([1397.00, 5000.00],
                     [ 2.66699039E+01,  3.57668941E-02, -1.22111069E-05,
                       1.89355489E-09, -1.09771124E-13, -1.76522567E+04,
                      -1.16748598E+02])),
        transport=gas_transport(geom='nonlinear',
                                diam=6.274,
                                well_depth=442.4,
                                rot_relax=1.0),
        note='thgen')

species(name='iC8H17b',
        atoms='C:8 H:17',
        thermo=(NASA([300.00, 1393.00],
                     [-3.08982602E+00,  1.02313728E-01, -6.84786443E-05,
                       2.30138816E-08, -3.06907219E-12, -8.59119871E+03,
                       4.31119876E+01]),
                NASA([1393.00, 5000.00],
                     [ 2.64552622E+01,  3.55440069E-02, -1.20528460E-05,
                       1.86101603E-09, -1.07579175E-13, -1.90011197E+04,
                      -1.16235434E+02])),
        transport=gas_transport(geom='nonlinear',
                                diam=6.274,
                                well_depth=442.4,
                                rot_relax=1.0),
        note='thgen')

species(name='iC8H17c',
        atoms='C:8 H:17',
        thermo=(NASA([300.00, 1391.00],
                     [-1.36188399E-01,  8.95911214E-02, -5.19109344E-05,
                       1.41679587E-08, -1.36451909E-12, -1.00175669E+04,
                       2.91251126E+01]),
                NASA([1391.00, 5000.00],
                     [ 2.51272998E+01,  3.70884662E-02, -1.26690109E-05,
                       1.96520206E-09, -1.13948587E-13, -1.94528029E+04,
                      -1.08882326E+02])),
        transport=gas_transport(geom='nonlinear',
                                diam=6.274,
                                well_depth=442.4,
                                rot_relax=1.0),
        note='thgen')

species(name='iC8H17d',
        atoms='C:8 H:17',
        thermo=(NASA([300.00, 1397.00],
                     [-3.44104605E+00,  1.07009145E-01, -7.69776230E-05,
                       2.88290095E-08, -4.42938429E-12, -7.29698319E+03,
                       4.35274056E+01]),
                NASA([1397.00, 5000.00],
                     [ 2.66699039E+01,  3.57668941E-02, -1.22111069E-05,
                       1.89355489E-09, -1.09771124E-13, -1.76522567E+04,
                      -1.17846797E+02])),
        transport=gas_transport(geom='nonlinear',
                                diam=6.274,
                                well_depth=442.4,
                                rot_relax=1.0),
        note='thgen')

species(name='C7H15a',
        atoms='C:7 H:15',
        thermo=(NASA([300.00, 1384.00],
                     [ 1.31642770E+00,  6.95797011E-02, -3.30619041E-05,
                       5.79459288E-09,  4.32382924E-14, -5.78577320E+03,
                       2.45317227E+01]),
                NASA([1384.00, 5000.00],
                     [ 2.04588697E+01,  3.43064774E-02, -1.18097483E-05,
                       1.84120406E-09, -1.07127988E-13, -1.34975920E+04,
                      -8.18247065E+01])),
        transport=gas_transport(geom='nonlinear',
                                diam=6.037,
                                well_depth=420.9,
                                rot_relax=1.0),
        note='thgen')

species(name='tC4H9',
        atoms='C:4 H:9',
        thermo=(NASA([300.00, 1371.00],
                     [ 3.00651244E+00,  2.87404049E-02, -2.86301425E-06,
                      -5.92506428E-09,  1.92085423E-12,  3.85126136E+03,
                       1.18650543E+01]),
                NASA([1371.00, 5000.00],
                     [ 1.06256766E+01,  2.10524192E-02, -7.24699414E-06,
                       1.12975765E-09, -6.57275211E-14,  8.98003085E+01,
                      -3.28154286E+01])),
        transport=gas_transport(geom='nonlinear',
                                diam=5.12,
                                well_depth=362.0,
                                rot_relax=1.0),
        note='thgen')

species(name='iC4H9',
        atoms='C:4 H:9',
        thermo=(NASA([300.00, 1389.00],
                     [-2.60119556E-01,  4.59801603E-02, -2.76540140E-05,
                       8.55997651E-09, -1.10410554E-12,  6.56626481E+03,
                       2.71901259E+01]),
                NASA([1389.00, 5000.00],
                     [ 1.21596150E+01,  1.97412861E-02, -6.79323159E-06,
                       1.05880234E-09, -6.15918443E-14,  1.89478674E+03,
                      -4.06305807E+01])),
        transport=gas_transport(geom='nonlinear',
                                diam=5.12,
                                well_depth=362.0,
                                rot_relax=1.0),
        note='thgen')

species(name='C5H11b',
        atoms='C:5 H:11',
        thermo=(NASA([300.00, 1399.00],
                     [-2.14067569E+00,  6.78957604E-02, -4.90513405E-05,
                       1.83744735E-08, -2.80901680E-12,  2.39723298E+03,
                       3.37551329E+01]),
                NASA([1399.00, 5000.00],
                     [ 1.69959366E+01,  2.24009208E-02, -7.61544336E-06,
                       1.17760581E-09, -6.81354004E-14, -4.14146757E+03,
                      -6.86921852E+01])),
        transport=gas_transport(geom='nonlinear',
                                diam=5.443,
                                well_depth=384.8,
                                rot_relax=1.0),
        note='thgen')

species(name='iC3H7',
        atoms='C:3 H:7',
        thermo=(NASA([300.00, 1999.00],
                     [ 6.35981674E-01,  2.84995364E-02, -1.14520937E-05,
                       8.92803184E-10,  3.13189892E-13,  9.22197497E+03,
                       2.30735195E+01]),
                NASA([1999.00, 5000.00],
                     [ 7.09001153E+00,  1.70236198E-02, -5.94979925E-06,
                       9.40957054E-10, -5.53932270E-14,  6.75927916E+03,
                      -1.26897658E+01])),
        transport=gas_transport(geom='nonlinear',
                                diam=4.758,
                                well_depth=339.3,
                                rot_relax=1.0),
        note='thgen')

species(name='nC7H15OOa',
        atoms='C:7 H:15 O:2',
        thermo=(NASA([300.00, 1388.00],
                     [ 1.16991481E+00,  8.86289525E-02, -5.83257561E-05,
                       2.05648298E-08, -3.10938022E-12, -1.82304852E+04,
                       3.05826217E+01]),
                NASA([1388.00, 5000.00],
                     [ 2.52819036E+01,  3.50663289E-02, -1.21129829E-05,
                       1.89283711E-09, -1.10308954E-13, -2.70586287E+04,
                      -1.00192675E+02])),
        transport=gas_transport(geom='nonlinear',
                                diam=6.265,
                                well_depth=504.0,
                                rot_relax=1.0),
        note='thgen')

species(name='nC7H15Oa',
        atoms='C:7 H:15 O:1',
        thermo=(NASA([300.00, 1391.00],
                     [-4.68152436E-01,  8.74962241E-02, -5.69525033E-05,
                       1.92438753E-08, -2.69227009E-12, -1.78229560E+04,
                       3.56841037E+01]),
                NASA([1391.00, 5000.00],
                     [ 2.36633299E+01,  3.38166950E-02, -1.15728069E-05,
                       1.79729377E-09, -1.04295933E-13, -2.65364720E+04,