!
! ===== gasoline PRF mechanism 2.00 (#181017a) =====
!       with revised ethanol & base mechanism
!
! fuels
!   nC7H16 : n-heptane
!   iC8H18 : isooctane
!   C2H5OH : ethanol
!
elements
 H HE C N O AR
end
species
 nC7H16 iC8H18 nC7H15a nC7H15b nC7H15c nC7H15d C6H13a C5H11a nC3H7
 nC4H9 iC8H17a iC8H17b iC8H17c iC8H17d C7H15a tC4H9 iC4H9 C5H11b
 iC3H7 nC7H15OOa nC7H15Oa C3H6 nC7H15OOb nC7H15Ob C6H12a n1C4H8
 nC7H15OOc nC7H15Oc C5H10a nC7H15OOd nC7H15Od C6H13b C6H13c C6H13OOa
 C6H13Oa C5H11c C5H11OOa C5H11Oa nC3H7OO nC3H7O nC4H9OO nC4H9O
 C7H14a iC4H8 iC8H17OOa iC8H17Oa C7H14b C7H14c iC8H17OOb iC8H17Ob
 iC8H17OOc iC8H17Oc C7H14d iC8H17OOd iC8H17Od C7H15OOa C7H15Oa
 tC4H9OO tC4H9O iC4H9OO iC4H9O C5H11OOb C5H11Ob iC3H7OO iC3H7O
 C7H14e C7H14OOHa C7H14OOHb C7H14OOHc C7H14OOHd nC7H15OOHa aC3H5
 C7H14f C7H14OOHe C7H14OOHf C7H14OOHg C7H14OOHh C7H14OOHi nC7H15OOHb
 C5H11CHOa aC6H11a nC4H7a C7H14g C7H14OOHj C7H14OOHk C7H14OOHl
 C7H14OOHm C7H14OOHn C7H14OOHo nC7H15OOHc C4H9CHOa C2H5CHO aC5H9a
 C7H14OOHp C7H14OOHq C7H14OOHr nC7H15OOHd nC3H7CHO C6H13OOb C6H13Ob
 C6H13OOc C6H13Oc C6H12OOHa C6H12OOHb C6H12OOHc C6H12OOHd C6H13OOHa
 C5H11OOc C5H11Oc C5H10OOHa C5H10OOHb C5H10OOHc C5H10OOHd C5H11OOHa
 C3H6OOHab C3H6OOHac nC3H7OOH C4H8OOHab C4H8OOHac C4H8OOHad nC4H9OOH
 aC7H13a C6H13d iC4H7a C8H16OOHa C8H16OOHb C8H16OOHc C8H16OOHd
 iC8H17OOHa aC7H13b CH3CHCHO aC7H13c iC3H6vCHO C8H16a C8H16OOHe
 C8H16OOHf C8H16OOHg iC8H17OOHb C4H9CHOb iC3H7CHO C8H16b C8H16OOHh
 C8H16OOHi C8H16OOHj iC8H17OOHc C6H14COa CH3COCH3 C6H13e C8H16OOHk
 C8H16OOHl C8H16OOHm C8H16OOHn iC8H17OOHd C7H15b C7H14OOHs C7H14OOHt
 C7H14OOHu C7H14OOHv C7H15OOHa C5H12COa C4H8OOHti tC4H9OOH C4H8OOHit
 C4H8OOHii iC4H9OOH C5H10OOHe C5H11OOHb C3H6OOHba iC3H7OOH aC7H13d
 C7H14cyOa HOOC7H14OOa C7H14cyOb HOOC7H14OOb C7H14cyOc HOOC7H14OOc
 C7H14cyOd HOOC7H14OOd aC7H13e C6H11Oa C7H14cyOe HOOC7H14OOe C7H14cyOf
 HOOC7H14OOf C7H14cyOg HOOC7H14OOg C7H14cyOh HOOC7H14OOh HOOC7H14OOi
 C5H11COa C5H9Oa C7H14cyOi HOOC7H14OOj C7H14cyOj HOOC7H14OOk HOOC7H14OOl
 HOOC7H14OOm HOOC7H14OOn HOOC7H14OOo C4H9COa C2H5CO HOOC7H14OOp
 HOOC7H14OOq HOOC7H14OOr nC3H7CO C3H6vCHO C6H12b C6H12c C6H12OOHe
 C6H12OOHf C6H12OOHg C6H12OOHh C6H12OOHi C6H13OOHb C6H12OOHj C6H12OOHk
 C6H12OOHl C6H12OOHm C6H12OOHn C6H13OOHc C6H12cyOa HOOC6H12OOa
 C6H12cyOb HOOC6H12OOb C6H12cyOc HOOC6H12OOc C6H12cyOd HOOC6H12OOd
 C5H10b C5H10OOHf C5H10OOHg C5H10OOHh C5H10OOHi C5H11OOHc C5H10cyOa
 HOOC5H10OOa C5H10cyOb HOOC5H10OOb C5H10cyOc HOOC5H10OOc C5H10cyOd
 HOOC5H10OOd C3H6cyOab HOOC3H6OOab C3H6cyOac HOOC3H6OOac C4H8cyOab
 HOOC4H8OOab C4H8cyOac HOOC4H8OOac C4H8cyOad HOOC4H8OOad CH3COCH2
 C6H13OOd C6H13Od C8H16cyOa HOOC8H16OOa C8H16cyOb HOOC8H16OOb
 C8H16cyOc HOOC8H16OOc C8H16cyOd HOOC8H16OOd CH3CHCO iC2H6CCO
 aC8H15a HOOC8H16OOe C8H16cyOe HOOC8H16OOf C8H16cyOf HOOC8H16OOg
 C4H9COb iC3H7CO HOOC8H16OOh HOOC8H16OOi C8H16cyOg HOOC8H16OOj
 C6H13vCOa C6H13vCOb C5H11COb C6H13f C6H13OOe C6H13Oe HOOC8H16OOk
 HOOC8H16OOl HOOC8H16OOm C8H16cyOh HOOC8H16OOn C7H15OOb C7H15Ob
 C7H14cyOk HOOC7H14OOs C7H14cyOl HOOC7H14OOt C7H14cyOm HOOC7H14OOu
 C7H14cyOn HOOC7H14OOv C5H11vCOa C5H11vCOb C4H9COc C4H8cyOit HOOC4H8OOti
 HOOC4H8OOit C4H8cyOii HOOC4H8OOii C5H10cyOe HOOC5H10OOe HOOC3H6OOba
 C5H12CCOa CHOC6H12OOHa CHOC6H12OOHb C4H9vCOa CHOC6H12OOHc CH2CH2CHO
 COC4H9a CHOC6H12OOHd C4H10CCOa COC6H13OOHa COC6H13OOHb C2H5COCH2
 COC6H13OOHc CH2CH2COCH3 COC6H13OOHd COC6H13OOHe C3H8CCOa C2H5CHCO
 COC6H13OOHf COC6H13OOHg COC6H13OOHh COC6H13OOHi COC6H13OOHj COC6H13OOHk
 COC6H13OOHl COC6H13OOHm COC6H13OOHn aC6H11b C6H12cyOe HOOC6H12OOe
 C6H12cyOf HOOC6H12OOf HOOC6H12OOg C6H12cyOg HOOC6H12OOh HOOC6H12OOi
 HOOC6H12OOj HOOC6H12OOk C6H12cyOh HOOC6H12OOl HOOC6H12OOm HOOC6H12OOn
 CHOC5H10OOHa CHOC5H10OOHb CHOC5H10OOHc CHOC5H10OOHd aC5H9b C5H10cyOf
 HOOC5H10OOf C5H10cyOg HOOC5H10OOg HOOC5H10OOh HOOC5H10OOi CHOC4H8OOHa
 CHOC4H8OOHb CHOC4H8OOHc CHOC4H8OOHd CHOC2H4OOHb CHOC2H4OOHc CHOC3H6OOHab
 CHOC3H6OOHac CHOC3H6OOHad C6H12d C6H12e C6H12OOHo C6H12OOHp C6H12OOHq
 C6H12OOHr C6H13OOHd C4H9CHOc CHOC7H14OOHa CHOC7H14OOHb CHOC4H8a
 iC3H6qCHO CHOC7H14OOHc CHOC7H14OOHd COC7H15OOHa COC7H15OOHb COC7H15OOHc
 C6H14CCOa C4H10CCOb C5H10c C6H13OOf C6H13Of C6H12f C6H12OOHs
 C6H12OOHt C6H13OOHe CHOC7H14OOHe CHOC7H14OOHf CHOC7H14OOHg CHOC7H14OOHh
 C7H14OOHw C7H14OOHx C7H14OOHy C7H15OOHb C5H11CHOb HOOC7H14OOw
 C4H7a CHOC6H12OOHe HOOC7H14OOx COC6H13OOHo C5H12CCOb HOOC7H14OOy
 C3H8CCOb CHOC3H6OOHit CHOC3H6OOHii CHOC4H8OOHe CH3COCH2OOH C7H13O2a
 C7H13O2b C7H13O2c C7H13O2d C7H13O2e C7H13O2f C7H13O2g C7H13O2h
 C7H13O2i C7H13O2j C7H13O2k C7H13O2l C7H13O2m C7H13O2n C7H13O2o
 C7H13O2p C7H13O2q C7H13O2r COC5H11OOHa COC5H11OOHb COC5H11OOHc
 COC5H11OOHd COC5H11OOHe COC5H11OOHf COC5H11OOHg COC5H11OOHh COC5H11OOHi
 COC5H11OOHj C6H11O2a C6H11O2b C6H11O2c C6H11O2d COC4H9OOHa COC4H9OOHb
 COC4H9OOHc COC4H9OOHd C5H9O2a C5H9O2b C5H9O2c C5H9O2d C3H5O2a
 C3H5O2b C4H7O2a C4H7O2b C4H7O2c aC6H11c aC6H11d C5H11d C6H12cyOi
 HOOC6H12OOo C6H12cyOj HOOC6H12OOp C6H12cyOk HOOC6H12OOq C6H12cyOl
 HOOC6H12OOr C4H8vCHOa C8H15O2a C8H15O2b C8H15O2c C8H15O2d C8H15O2e
 C8H15O2f C8H15O2g aC5H9c sC4H9 C6H12OOHu C6H12OOHv C6H12OOHw
 C6H13OOHf C5H11e C6H12cyOm HOOC6H12OOs C6H12cyOn HOOC6H12OOt
 C8H15O2h C8H15O2i C8H15O2j C8H15O2k C7H14cyOo HOOC7H14OOz C7H14cyOp
 HOOC7H14OOaa C7H14cyOq HOOC7H14OOab C5H10vCHOa COC6H13OOHp C7H13O2s
 C7H13O2t CHOC6H12OOHf C4H7O2d C4H7O2e C5H9O2e CH3COCH2O C3H5OCHOa
 C4H7OCHOa C3H6qCHOa C3H7COCHOa C4H9COCHOa COC4H9b C4H9COCHOb
 COC5H11a C5H11vCOc COC5H11b C6H11O2e C6H11O2f C6H11O2g C6H11O2h
 C6H11O2i C6H11O2j C6H11O2k C6H11O2l C6H11O2m C6H11O2n C5H9O2f
 C5H9O2g C5H9O2h C5H9O2i C5H11f C5H11OOd C5H11Od COC5H11OOHk COC5H11OOHl
 COC5H11OOHm C4H10CCOc COC5H11OOHn C5H11COCHOa CHOC6H12a C6H12vCHOa
 C6H13vCOc C6H13vCOd sC4H9OO sC4H9O C5H10d C6H12cyOo HOOC6H12OOu
 HOOC6H12OOv C6H12cyOp HOOC6H12OOw C5H11OOe C5H11Oe CHOC5H10OOHe
 CHOC5H10OOHf C3H5OCHOb CHOC6H12b C6H12vCHOb COC6H13OOHq COC6H13OOHr
 C5H12CCOc COC6H13OOHs C7H13O2u C4H9COCHOc C5H11vCOd C7H13O2v
 C3H5OCOa C3H4OvCHOa C4H7OCOa C4H6OvCHOa COC3H7COa COC4H9COa COC4H9COb
 C5H11OOf C5H11Of C5H10e C5H10OOHj C5H10OOHk C5H10OOHl C5H11OOHd
 C6H11O2o C6H11O2p C6H11O2q C6H11O2r COC5H11COa C6H13g n2C4H8
 C4H8OOHbc C4H8OOHbd C4H8OOHba sC4H9OOH CHOC5H10OOHg CHOC5H10OOHh
 CHOC5H10OOHi C5H10OOHm C5H10OOHn C5H10OOHo C5H11OOHe C2H5COCH3
 C6H11O2s C6H11O2t C3H5OCOb C6H12OOHx C7H13O2w C7H13O2x C7H13O2y
 COC4H9COc OCCCH3CHOa C2H3OCHOa OCCC2H5CHOa C5H10OOHp C5H10OOHq
 C5H10OOHr C5H10OOHs C5H11OOHf aC5H9d C5H10cyOh HOOC5H10OOj C5H10cyOi
 HOOC5H10OOk C5H10cyOj HOOC5H10OOl COC4H9c COC5H11c C6H13OOg C6H13Og
 C4H8cyObc HOOC4H8OObc HOOC4H8OObd HOOC4H8OOba C6H11O2u C6H11O2v
 C6H11O2w C5H10cyOk HOOC5H10OOm HOOC5H10OOn C5H10cyOl HOOC5H10OOo
 CH3CHCOCH3 CHOCHOa CHOC4H8b HOOC6H12OOx CH3COCHOa OCCCH3COa C2H3OCOa
 OCCC2H5COa HOOC5H10OOp C5H10cyOm HOOC5H10OOq HOOC5H10OOr C5H10cyOn
 HOOC5H10OOs CHOC4H8OOHf CHOC4H8OOHg CHOC4H8OOHh C6H12g C6H12h
 C6H12OOHy C6H12OOHz C6H12OOHaa C6H13OOHg C4H10COa COC3H7OOHbc
 COC3H7OOHbd COC3H7OOHba C4H8vCHOb HOOC5H10OOt CHOC4H8OOHi C3H8CCOc
 COvCHOa CHOC5H10OOHj CHOCH2vCOa C2H3CO OCCC2H5a CHOC4H8OOHj CHOC4H8OOHk
 CHOC4H8OOHl C5H9O2j C5H9O2k C5H9O2l aC6H11e C6H12cyOq HOOC6H12OOy
 C6H12cyOr HOOC6H12OOz C6H12cyOs HOOC6H12OOaa C4H9vCOb C4H7O2f
 C4H7O2g C4H7O2h COC4H9OOHe C5H9O2m C6H11O2x C2H4CCOa C5H9O2n
 C5H9O2o C5H9O2p C3H6qCHOb HOOC6H12OOab HOOC6H12OOac COC5H11OOHo
 C4H10CCOd HOOC6H12OOad C5H9O2q C4H7OCHOb C2H3CHO COC5H11OOHp
 CHOC5H10OOHk C6H11O2y CHOC5H10OOHl C4H7OCOb C4H6OvCHOb C6H11O2z
 C6H11O2aa C4H9vCOc C6H11O2ab OCCC2H5CHOb C2H5COCHOa OCCC2H5COb
 COC2H5COa OCCC2H5b
 He Ar H H2 O OH H2O O2 HO2 H2O2 N2 CH CH2 CH2(S) CH3 CH4 CO HCO
 CH2O CH2OH CH3O CH3OH CO2 HOCO HOCHO CH3OO CH3OOH C2H C2H2 C2H3
 C2H4 C2H5 C2H6 HCCO CH2CO CH3CO CH2CHO C2H4cyO CH3CHO C2H5O pC2H4OH
 sC2H4OH C2H5OH CH3CO2 C2H4OOH C2H5OO C2H5OOH CH3C(O)OO CH3C(O)OOH
 O2C2H4OH
!
! -- rev. ethanol
 HOC2H4OOHa C2H5OOa C2H5OOb HOOC2H3aOHa C2H5O3a CHOCH2OOHa
 OCH2CHO cyCOCOH
! - only for PRF/TRF
 C2H3OHa CH2OOHa HOHCCOa
! --
!
! == fl3
 aC3H4 aC3H5O v2C3H5 iC4H7Oa C3H3 C3H2
! ==
! -- 3m5d
 C3H5CHOa
!
! --- 180320a
! C3H5COa
!
 d13C4H6
! --
end

reactions      cal/mole  moles
! Reaction data generated by combust (Jan 06, 2016)
 nC7H16+H=nC7H15a+H2                              3.040e+05   2.760    7200.0
                                           rev /  2.506e+01   3.431    9510.6 /
 nC7H16+OH=nC7H15a+H2O                            1.766e+07   1.800     855.0
                                           rev /  2.339e+04   2.308   18107.1 /
 nC7H16+O=nC7H15a+OH                              4.040e+04   2.780    3380.0
                                           rev /  1.804e+00   3.427    4286.0 /
 nC7H16+CH3=nC7H15a+CH4                           6.460e-08   5.970    5480.0
                                           rev /  7.223e-08   5.831    9916.3 /
 nC7H16+HO2=nC7H15a+H2O2                          1.680e+13   0.000   20440.0
                                           rev /  1.869e+11   0.159    6864.8 /
 nC7H16+O2=nC7H15a+HO2                            4.200e+13   0.000   50760.0
                                           rev /  2.093e+10   0.304   -1913.1 /
 nC7H16+CH3O=nC7H15a+CH3OH                        3.200e+11   0.000    7000.0
                                           rev /  4.923e+07   0.752    9664.5 /
 nC7H16+C2H5=nC7H15a+C2H6                         1.000e+11   0.000   13400.0
                                           rev /  4.206e+10   0.101   13315.1 /
 nC7H16+C2H3=nC7H15a+C2H4                         1.000e+12   0.000   18000.0
                                           rev /  7.645e+10   0.314   28065.6 /
 nC7H16+CH3OO=nC7H15a+CH3OOH                      1.680e+13   0.000   20440.0
                                           rev /  7.706e+12  -0.376    5232.8 /
 nC7H16+C2H5OO=nC7H15a+C2H5OOH                    1.210e+13   0.000   20430.0
                                           rev /  5.498e+12  -0.378    4816.0 /
 nC7H16+CH3C(O)OO=nC7H15a+CH3C(O)OOH              1.210e+13   0.000   20430.0
                                           rev /  7.575e+11   0.080   23127.8 /
 nC7H16+H=nC7H15b+H2                              1.148e+06   2.490    4124.0
                                           rev /  7.479e+00   3.480    8978.1 /
 nC7H16+OH=nC7H15b+H2O                            1.800e+06   2.000   -1133.0
                                           rev /  1.883e+02   2.828   18662.5 /
 nC7H16+O=nC7H15b+OH                              9.540e+04   2.710    2106.0
                                           rev /  3.366e-01   3.676    5555.4 /
 nC7H16+CH3=nC7H15b+CH4                           5.420e+04   2.260    7287.0
                                           rev /  4.788e+03   2.441   14266.8 /
 nC7H16+HO2=nC7H15b+H2O2                          1.120e+13   0.000   17690.0
                                           rev /  9.844e+09   0.478    6658.3 /
 nC7H16+O2=nC7H15b+HO2                            2.800e+13   0.000   48210.0
                                           rev /  1.102e+09   0.623   -1919.6 /
 nC7H16+CH3O=nC7H15b+CH3OH                        2.200e+11   0.000    5000.0
                                           rev /  2.675e+06   1.071   10208.0 /
 nC7H16+C2H5=nC7H15b+C2H6                         1.000e+11   0.000   10400.0
                                           rev /  3.324e+09   0.421   12858.6 /
 nC7H16+C2H3=nC7H15b+C2H4                         8.000e+11   0.000   16800.0
                                           rev /  4.833e+09   0.633   29409.1 /
 nC7H16+CH3OO=nC7H15b+CH3OOH                      1.120e+13   0.000   17690.0
                                           rev /  4.059e+11  -0.056    5026.2 /
 nC7H16+C2H5OO=nC7H15b+C2H5OOH                    8.060e+12   0.000   17700.0
                                           rev /  2.894e+11  -0.058    4629.4 /
 nC7H16+CH3C(O)OO=nC7H15b+CH3C(O)OOH              8.060e+12   0.000   17700.0
                                           rev /  3.987e+10   0.399   22941.3 /
 nC7H16+H=nC7H15c+H2                              1.148e+06   2.490    4124.0
                                           rev /  7.479e+00   3.480    8978.1 /
 nC7H16+OH=nC7H15c+H2O                            1.800e+06   2.000   -1133.0
                                           rev /  1.883e+02   2.828   18662.5 /
 nC7H16+O=nC7H15c+OH                              9.540e+04   2.710    2106.0
                                           rev /  3.366e-01   3.676    5555.4 /
 nC7H16+CH3=nC7H15c+CH4                           5.420e+04   2.260    7287.0
                                           rev /  4.788e+03   2.441   14266.8 /
 nC7H16+HO2=nC7H15c+H2O2                          1.120e+13   0.000   17690.0
                                           rev /  9.844e+09   0.478    6658.3 /
 nC7H16+O2=nC7H15c+HO2                            2.800e+13   0.000   48210.0
                                           rev /  1.102e+09   0.623   -1919.6 /
 nC7H16+CH3O=nC7H15c+CH3OH                        2.200e+11   0.000    5000.0
                                           rev /  2.675e+06   1.071   10208.0 /
 nC7H16+C2H5=nC7H15c+C2H6                         1.000e+11   0.000   10400.0
                                           rev /  3.324e+09   0.421   12858.6 /
 nC7H16+C2H3=nC7H15c+C2H4                         8.000e+11   0.000   16800.0
                                           rev /  4.833e+09   0.633   29409.1 /
 nC7H16+CH3OO=nC7H15c+CH3OOH                      1.120e+13   0.000   17690.0
                                           rev /  4.059e+11  -0.056    5026.2 /
 nC7H16+C2H5OO=nC7H15c+C2H5OOH                    8.060e+12   0.000   17700.0
                                           rev /  2.894e+11  -0.058    4629.4 /
 nC7H16+CH3C(O)OO=nC7H15c+CH3C(O)OOH              8.060e+12   0.000   17700.0
                                           rev /  3.987e+10   0.399   22941.3 /
 nC7H16+H=nC7H15d+H2                              5.740e+05   2.490    4124.0
                                           rev /  7.486e+00   3.480    8978.1 /
 nC7H16+OH=nC7H15d+H2O                            9.000e+05   2.000   -1133.0
                                           rev /  1.885e+02   2.828   18662.5 /
 nC7H16+O=nC7H15d+OH                              4.770e+04   2.710    2106.0
                                           rev /  3.369e-01   3.676    5555.4 /
 nC7H16+CH3=nC7H15d+CH4                           2.710e+04   2.260    7287.0
                                           rev /  4.793e+03   2.441   14266.8 /
 nC7H16+HO2=nC7H15d+H2O2                          5.600e+12   0.000   17690.0
                                           rev /  9.853e+09   0.478    6658.3 /
 nC7H16+O2=nC7H15d+HO2                            1.400e+13   0.000   48210.0
                                           rev /  1.103e+09   0.623   -1919.6 /
 nC7H16+CH3O=nC7H15d+CH3OH                        1.100e+11   0.000    5000.0
                                           rev /  2.677e+06   1.071   10208.0 /
 nC7H16+C2H5=nC7H15d+C2H6                         5.000e+10   0.000   10400.0
                                           rev /  3.326e+09   0.421   12858.6 /
 nC7H16+C2H3=nC7H15d+C2H4                         4.000e+11   0.000   16800.0
                                           rev /  4.837e+09   0.633   29409.1 /
 nC7H16+CH3OO=nC7H15d+CH3OOH                      5.600e+12   0.000   17690.0
                                           rev /  4.063e+11  -0.056    5026.2 /
 nC7H16+C2H5OO=nC7H15d+C2H5OOH                    4.030e+12   0.000   17700.0
                                           rev /  2.896e+11  -0.058    4629.4 /
 nC7H16+CH3C(O)OO=nC7H15d+CH3C(O)OOH              4.030e+12   0.000   17700.0
                                           rev /  3.991e+10   0.399   22941.3 /
 nC7H16=CH3+C6H13a                                4.674e+23  -1.932   90236.7
                                           rev /  2.000e+13   0.000       0.0 /
 nC7H16=C2H5+C5H11a                               1.014e+25  -2.254   88858.0
                                           rev /  1.600e+13   0.000       0.0 /
 nC7H16=nC3H7+nC4H9                               1.074e+25  -2.217   88474.6
                                           rev /  1.600e+13   0.000       0.0 /
 iC8H18+H=iC8H17a+H2                              4.560e+05   2.760    7200.0
                                           rev /  2.496e+01   3.431    9510.3 /
 iC8H18+OH=iC8H17a+H2O                            2.649e+07   1.800     855.0
                                           rev /  2.329e+04   2.309   18106.7 /
 iC8H18+O=iC8H17a+OH                              6.060e+04   2.780    3380.0
                                           rev /  1.797e+00   3.427    4285.6 /
 iC8H18+CH3=iC8H17a+CH4                           9.690e-08   5.970    5480.0
                                           rev /  7.194e-08   5.832    9915.9 /
 iC8H18+HO2=iC8H17a+H2O2                          2.520e+13   0.000   20440.0
                                           rev /  1.861e+11   0.159    6864.5 /
 iC8H18+O2=iC8H17a+HO2                            6.300e+13   0.000   50760.0
                                           rev /  2.084e+10   0.304   -1913.4 /
 iC8H18+CH3O=iC8H17a+CH3OH                        4.800e+11   0.000    7000.0
                                           rev /  4.903e+07   0.752    9664.1 /
 iC8H18+C2H5=iC8H17a+C2H6                         1.500e+11   0.000   13400.0
                                           rev /  4.189e+10   0.102   13314.8 /
 iC8H18+C2H3=iC8H17a+C2H4                         1.500e+12   0.000   18000.0
                                           rev /  7.614e+10   0.314   28065.2 /
 iC8H18+CH3OO=iC8H17a+CH3OOH                      2.520e+13   0.000   20440.0
                                           rev /  7.675e+12  -0.375    5232.4 /
 iC8H18+C2H5OO=iC8H17a+C2H5OOH                    1.815e+13   0.000   20430.0
                                           rev /  5.476e+12  -0.377    4815.6 /
 iC8H18+CH3C(O)OO=iC8H17a+CH3C(O)OOH              1.815e+13   0.000   20430.0
                                           rev /  7.545e+11   0.080   23127.5 /
 iC8H18+H=iC8H17b+H2                              5.740e+05   2.490    4124.0
                                           rev /  7.602e+00   3.478    8982.0 /
 iC8H18+OH=iC8H17b+H2O                            9.000e+05   2.000   -1133.0
                                           rev /  1.914e+02   2.826   18666.4 /
 iC8H18+O=iC8H17b+OH                              4.770e+04   2.710    2106.0
                                           rev /  3.421e-01   3.674    5559.4 /
 iC8H18+CH3=iC8H17b+CH4                           2.710e+04   2.260    7287.0
                                           rev /  4.867e+03   2.439   14270.7 /
 iC8H18+HO2=iC8H17b+H2O2                          5.600e+12   0.000   17690.0
                                           rev /  1.001e+10   0.477    6662.2 /
 iC8H18+O2=iC8H17b+HO2                            1.400e+13   0.000   48210.0
                                           rev /  1.121e+09   0.621   -1915.7 /
 iC8H18+CH3O=iC8H17b+CH3OH                        1.100e+11   0.000    5000.0
                                           rev /  2.719e+06   1.070   10211.9 /
 iC8H18+C2H5=iC8H17b+C2H6                         5.000e+10   0.000   10400.0
                                           rev /  3.378e+09   0.419   12862.5 /
 iC8H18+C2H3=iC8H17b+C2H4                         4.000e+11   0.000   16800.0
                                           rev /  4.912e+09   0.631   29413.0 /
 iC8H18+CH3OO=iC8H17b+CH3OOH                      5.600e+12   0.000   17690.0
                                           rev /  4.126e+11  -0.058    5030.1 /
 iC8H18+C2H5OO=iC8H17b+C2H5OOH                    4.030e+12   0.000   17700.0
                                           rev /  2.942e+11  -0.060    4633.3 /
 iC8H18+CH3C(O)OO=iC8H17b+CH3C(O)OOH              4.030e+12   0.000   17700.0
                                           rev /  4.053e+10   0.397   22945.2 /
 iC8H18+H=iC8H17c+H2                              6.020e+05   2.400    2583.0
                                           rev /  3.149e+00   3.566    9279.3 /
 iC8H18+OH=iC8H17c+H2O                            1.700e+06   1.900   -1451.0
                                           rev /  1.428e+02   2.903   20186.7 /
 iC8H18+O=iC8H17c+OH                              3.830e+05   2.410    1140.0
                                           rev /  1.085e+00   3.552    6431.7 /
 iC8H18+CH3=iC8H17c+CH4                           8.960e+03   2.330    6147.0
                                           rev /  6.356e+02   2.686   14969.0 /
 iC8H18+HO2=iC8H17c+H2O2                          2.800e+12   0.000   16010.0
                                           rev /  1.976e+09   0.654    6820.5 /
 iC8H18+O2=iC8H17c+HO2                            7.000e+12   0.000   46060.0
                                           rev /  2.213e+08   0.799   -2227.4 /
 iC8H18+CH3O=iC8H17c+CH3OH                        1.900e+10   0.000    2800.0
                                           rev /  1.855e+05   1.247    9850.2 /
 iC8H18+C2H5=iC8H17c+C2H6                         1.000e+11   0.000    7900.0
                                           rev /  2.669e+09   0.596   12200.8 /
 iC8H18+C2H3=iC8H17c+C2H4                         2.000e+11   0.000   14300.0
                                           rev /  9.701e+08   0.809   28751.3 /
 iC8H18+CH3OO=iC8H17c+CH3OOH                      2.800e+12   0.000   16010.0
                                           rev /  8.149e+10   0.119    5188.4 /
 iC8H18+C2H5OO=iC8H17c+C2H5OOH                    2.000e+12   0.000   16000.0
                                           rev /  5.766e+10   0.117    4771.7 /
 iC8H18+CH3C(O)OO=iC8H17c+CH3C(O)OOH              2.000e+12   0.000   16000.0
                                           rev /  7.944e+09   0.575   23083.5 /
 iC8H18+H=iC8H17d+H2                              3.040e+05   2.760    7200.0
                                           rev /  4.991e+01   3.431    9510.3 /
 iC8H18+OH=iC8H17d+H2O                            1.766e+07   1.800     855.0
                                           rev /  4.656e+04   2.309   18106.7 /
 iC8H18+O=iC8H17d+OH                              4.040e+04   2.780    3380.0
                                           rev /  3.592e+00   3.427    4285.6 /
 iC8H18+CH3=iC8H17d+CH4                           6.460e-08   5.970    5480.0
                                           rev /  1.438e-07   5.832    9915.9 /
 iC8H18+HO2=iC8H17d+H2O2                          1.680e+13   0.000   20440.0
                                           rev /  3.721e+11   0.159    6864.5 /
 iC8H18+O2=iC8H17d+HO2                            4.200e+13   0.000   50760.0
                                           rev /  4.167e+10   0.304   -1913.4 /
 iC8H18+CH3O=iC8H17d+CH3OH                        3.200e+11   0.000    7000.0
                                           rev /  9.803e+07   0.752    9664.1 /
 iC8H18+C2H5=iC8H17d+C2H6                         1.000e+11   0.000   13400.0
                                           rev /  8.375e+10   0.102   13314.8 /
 iC8H18+C2H3=iC8H17d+C2H4                         1.000e+12   0.000   18000.0
                                           rev /  1.522e+11   0.314   28065.2 /
 iC8H18+CH3OO=iC8H17d+CH3OOH                      1.680e+13   0.000   20440.0
                                           rev /  1.534e+13  -0.375    5232.4 /
 iC8H18+C2H5OO=iC8H17d+C2H5OOH                    1.210e+13   0.000   20430.0
                                           rev /  1.095e+13  -0.377    4815.6 /
 iC8H18+CH3C(O)OO=iC8H17d+CH3C(O)OOH              1.210e+13   0.000   20430.0
                                           rev /  1.508e+12   0.080   23127.5 /
 iC8H18=CH3+C7H15a                                1.981e+27  -2.749   88775.4
                                           rev /  3.000e+13   0.000       0.0 /
 iC8H18=tC4H9+iC4H9                               7.708e+27  -3.095   87054.7
                                           rev /  8.000e+12   0.000       0.0 /
 iC8H18=C5H11b+iC3H7                              1.304e+26  -2.629   88268.6
                                           rev /  8.000e+12   0.000       0.0 /
 nC7H15a=C2H4+C5H11a                              2.915e+19  -2.039   30917.0
                                           rev /  8.500e+10   0.000    7800.0 /
 nC7H15a=nC7H15d                                  2.540e+09   0.350   19760.0
                                           rev /  4.018e+08   0.669   22303.5 /
 nC7H15a=nC7H15c                                  4.280e+11  -1.050   11760.0
                                           rev /  3.382e+10  -0.731   14303.5 /
 nC7H15a+O2(+M)=nC7H15OOa(+M)                     6.890e+16  -1.627     200.0
                                           low /  8.861e+49 -11.994   -4973.2 /
                      troe / 0.0000 50.0 50000.0  9.000e+02 /
 nC7H15a+HO2=>nC7H15Oa+OH                         7.000e+12   0.000   -1000.0
 nC7H15a+CH3OO=>nC7H15Oa+CH3O                     7.000e+12   0.000   -1000.0
 nC7H15b=C3H6+nC4H9                               1.029e+19  -1.804   30540.6
                                           rev /  8.500e+10   0.000    7800.0 /
 nC7H15b=nC7H15c                                  3.220e+09   0.130   20700.0
                                           rev /  3.220e+09   0.130   20700.0 /
 nC7H15b+O2(+M)=nC7H15OOb(+M)                     3.480e+14  -0.816    -530.0
                                           low /  8.861e+49 -11.994   -4973.2 /
                      troe / 0.0000 50.0 50000.0  9.000e+02 /
 nC7H15b+HO2=>nC7H15Ob+OH                         7.000e+12   0.000   -1000.0
 nC7H15b+CH3OO=>nC7H15Ob+CH3O                     7.000e+12   0.000   -1000.0
 nC7H15c=C6H12a+CH3                               2.785e+17  -1.461   32405.7
                                           rev /  8.500e+10   0.000    7800.0 /
 nC7H15c=n1C4H8+nC3H7                             7.980e+18  -1.746   30640.3
                                           rev /  8.500e+10   0.000    7800.0 /
 nC7H15c+O2(+M)=nC7H15OOc(+M)                     3.480e+14  -0.816    -530.0
                                           low /  8.861e+49 -11.994   -4973.2 /
                      troe / 0.0000 50.0 50000.0  9.000e+02 /
 nC7H15c+HO2=>nC7H15Oc+OH                         7.000e+12   0.000   -1000.0
 nC7H15c+CH3OO=>nC7H15Oc+CH3O                     7.000e+12   0.000   -1000.0
 nC7H15d=C5H10a+C2H5                              3.019e+19  -1.783   31024.4
                                           rev /  1.700e+11   0.000    7800.0 /
 nC7H15d+O2(+M)=nC7H15OOd(+M)                     3.480e+14  -0.816    -530.0
                                           low /  8.861e+49 -11.994   -4973.2 /
                      troe / 0.0000 50.0 50000.0  9.000e+02 /
 nC7H15d+HO2=>nC7H15Od+OH                         7.000e+12   0.000   -1000.0
 nC7H15d+CH3OO=>nC7H15Od+CH3O                     7.000e+12   0.000   -1000.0
 C6H13a=C2H4+nC4H9                                2.917e+19  -2.039   30919.7
                                           rev /  8.500e+10   0.000    7800.0 /
 C6H13a=C6H13b                                    2.540e+09   0.350   19760.0
                                           rev /  2.017e+08   0.669   22301.6 /
 C6H13a=C6H13c                                    4.280e+11  -1.050   11760.0
                                           rev /  3.398e+10  -0.731   14301.6 /
 C6H13a+O2(+M)=C6H13OOa(+M)                       6.890e+16  -1.627     200.0
                                           low /  1.682e+48 -11.296   -4264.4 /
                      troe / 0.0000 50.0 50000.0  1.000e+03 /
 C6H13a+HO2=>C6H13Oa+OH                           7.000e+12   0.000   -1000.0
 C6H13a+CH3OO=>C6H13Oa+CH3O                       7.000e+12   0.000   -1000.0
 C5H11a=C2H4+nC3H7                                2.961e+19  -2.041   30921.8
                                           rev /  8.500e+10   0.000    7800.0 /
 C5H11a=C5H11c                                    2.540e+09   0.350   19760.0
                                           rev /  2.027e+08   0.668   22305.1 /
 C5H11a+O2(+M)=C5H11OOa(+M)                       6.890e+16  -1.627     200.0
                                           low /  1.445e+46 -10.458   -3414.0 /
                      troe / 0.0000 50.0 50000.0  1.200e+03 /
 C5H11a+HO2=>C5H11Oa+OH                           7.000e+12   0.000   -1000.0
 C5H11a+CH3OO=>C5H11Oa+CH3O                       7.000e+12   0.000   -1000.0
 nC3H7=C2H4+CH3                                   1.016e+18  -1.755   32681.9
                                           rev /  8.500e+10   0.000    7800.0 /
 nC3H7+O2(+M)=nC3H7OO(+M)                         6.890e+16  -1.627     200.0
                                           low /  3.011e+40  -8.154   -1075.3 /
                      troe / 0.1700 50.0 50000.0  4.000e+03 /
 nC3H7+HO2=>nC3H7O+OH                             7.000e+12   0.000   -1000.0
 nC3H7+CH3OO=>nC3H7O+CH3O                         7.000e+12   0.000   -1000.0
 nC4H9=C2H4+C2H5                                  2.796e+19  -2.079   31305.3
                                           rev /  8.500e+10   0.000    7800.0 /
 nC4H9+O2(+M)=nC4H9OO(+M)                         6.890e+16  -1.627     200.0
                                           low /  4.315e+43  -9.434   -2374.6 /
                      troe / 0.1500 50.0 50000.0  3.000e+03 /