ELEMENTS 
H O N
END

SPECIES 
H2  O2  H2O  N2
END

REACTIONS
!
2H2+O2 = 2H2O 1e12 0 0
END

